REMARK WARNING: 32 MAX_TORS EXCEEDED!!!
REMARK  42 active torsions:
REMARK  status: ('A' for Active; 'I' for Inactive)
REMARK    1  A    between atoms: N_1  and  CA_2 
REMARK    2  A    between atoms: CA_2  and  CB_5 
REMARK    3  A    between atoms: CA_2  and  C_3 
REMARK       I    between atoms: C_3  and  N_15 
REMARK    4  A    between atoms: CB_5  and  CG_6 
REMARK    5  A    between atoms: N_15  and  CA_16 
REMARK    6  A    between atoms: CA_16  and  C_17 
REMARK    7  A    between atoms: CA_16  and  CB_19 
REMARK       I    between atoms: C_17  and  N_23 
REMARK    8  A    between atoms: CB_19  and  SG_20 
REMARK    9  A    between atoms: N_23  and  CA_24 
REMARK   10  A    between atoms: CA_24  and  CB_27 
REMARK   11  A    between atoms: CA_24  and  C_25 
REMARK       I    between atoms: C_25  and  N_32 
REMARK   12  A    between atoms: CB_27  and  OG1_28 
REMARK   13  A    between atoms: N_32  and  CA_33 
REMARK   14  A    between atoms: CA_33  and  CB_36 
REMARK   15  A    between atoms: CA_33  and  C_34 
REMARK       I    between atoms: C_34  and  N_41 
REMARK   16  A    between atoms: CB_36  and  CG_37 
REMARK   17  A    between atoms: CG_37  and  SD_38 
REMARK   18  A    between atoms: N_41  and  CA_42 
REMARK   19  A    between atoms: CA_42  and  C_43 
REMARK   20  A    between atoms: CA_42  and  CB_45 
REMARK       I    between atoms: C_43  and  N_50 
REMARK   21  A    between atoms: CB_45  and  CG1_46 
REMARK   22  A    between atoms: CA_51  and  C_52 
REMARK       I    between atoms: C_52  and  N_57 
REMARK   23  A    between atoms: N_57  and  CA_58 
REMARK   24  A    between atoms: CA_58  and  C_59 
REMARK   25  A    between atoms: CA_58  and  CB_61 
REMARK       I    between atoms: C_59  and  N_66 
REMARK   26  A    between atoms: CB_61  and  CG1_62 
REMARK   27  A    between atoms: CA_67  and  C_68 
REMARK       I    between atoms: C_68  and  N_73 
REMARK   28  A    between atoms: N_73  and  CA_74 
REMARK   29  A    between atoms: CA_74  and  CB_77 
REMARK   30  A    between atoms: CA_74  and  C_75 
REMARK       I    between atoms: C_75  and  N_90 
REMARK   31  A    between atoms: CB_77  and  CG_78 
REMARK   32  A    between atoms: CG_78  and  CD_79 
REMARK   33  A    between atoms: CD_79  and  NE_80 
REMARK       I    between atoms: NE_80  and  CZ_81 
REMARK       I    between atoms: CZ_81  and  NH1_82 
REMARK   34  A    between atoms: N_90  and  CA_91 
REMARK   35  A    between atoms: CA_91  and  CB_94 
REMARK   36  A    between atoms: CA_91  and  C_92 
REMARK       I    between atoms: C_92  and  N_98 
REMARK   37  A    between atoms: CB_94  and  SG_95 
REMARK   38  A    between atoms: N_98  and  CA_99 
REMARK   39  A    between atoms: CA_99  and  CB_102 
REMARK   40  A    between atoms: CA_99  and  C_100 
REMARK   41  A    between atoms: CB_102  and  CG_103 
REMARK   42  A    between atoms: CZ_108  and  OH_109 
ROOT
ATOM      1  N   PHE     1      36.549  27.732  37.050  1.00  0.00    -0.057 N 
ATOM      2  H1  PHE     1      36.811  28.434  36.390  1.00 99.99     0.276 HD
ATOM      3  H2  PHE     1      36.771  28.028  37.965  1.00 99.99     0.276 HD
ATOM      4  H3  PHE     1      37.112  26.925  36.901  1.00 99.99     0.276 HD
ENDROOT
BRANCH   1   5
ATOM      5  CA  PHE     1      35.108  27.415  36.896  1.00  0.00     0.259 C 
BRANCH   5   6
ATOM      6  CB  PHE     1      34.354  27.495  38.239  1.00  0.00     0.064 C 
BRANCH   6   7
ATOM      7  CG  PHE     1      32.934  26.911  38.165  1.00  0.00    -0.044 A 
ATOM      8  CD2 PHE     1      31.822  27.730  38.341  1.00  0.00     0.008 A 
ATOM      9  CE2 PHE     1      30.541  27.187  38.323  1.00  0.00     0.001 A 
ATOM     10  CZ  PHE     1      30.364  25.821  38.134  1.00  0.00     0.000 A 
ATOM     11  CE1 PHE     1      31.470  25.000  37.962  1.00  0.00     0.001 A 
ATOM     12  CD1 PHE     1      32.750  25.543  37.980  1.00  0.00     0.008 A 
ENDBRANCH   6   7
ENDBRANCH   5   6
BRANCH   5  13
ATOM     13  C   PHE     1      34.447  28.262  35.783  1.00  0.00     0.259 C 
ATOM     14  O   PHE     1      34.477  27.829  34.636  1.00  0.00    -0.271 OA
ATOM     15  N   CYS     2      34.159  29.537  36.070  1.00  0.00    -0.337 N 
ATOM     16  H   CYS     2      34.329  29.904  36.983  1.00 99.99     0.164 HD
BRANCH  15  17
ATOM     17  CA  CYS     2      33.466  30.505  35.183  1.00  0.00     0.170 C 
BRANCH  17  18
ATOM     18  C   CYS     2      33.740  30.413  33.666  1.00  0.00     0.252 C 
ATOM     19  O   CYS     2      32.803  30.203  32.901  1.00  0.00    -0.271 OA
ATOM     20  N   THR     3      35.015  30.339  33.282  1.00  0.00    -0.336 N 
ATOM     21  H   THR     3      35.773  30.506  33.913  1.00 99.99     0.164 HD
BRANCH  20  22
ATOM     22  CA  THR     3      35.501  30.169  31.890  1.00  0.00     0.186 C 
BRANCH  22  23
ATOM     23  CB  THR     3      37.031  29.999  31.901  1.00  0.00     0.140 C 
ATOM     24  CG2 THR     3      37.659  30.527  30.606  1.00  0.00     0.034 C 
BRANCH  23  25
ATOM     25  OG1 THR     3      37.616  30.668  33.031  1.00  0.00    -0.382 OA
ATOM     26  HG1 THR     3      38.614  30.582  32.978  1.00 99.99     0.210 HD
ENDBRANCH  23  25
ENDBRANCH  22  23
BRANCH  22  27
ATOM     27  C   THR     3      34.900  28.954  31.144  1.00  0.00     0.253 C 
ATOM     28  O   THR     3      34.793  28.973  29.922  1.00  0.00    -0.270 OA
ATOM     29  N   MET     4      34.550  27.905  31.886  1.00  0.00    -0.337 N 
ATOM     30  H   MET     4      34.603  27.935  32.889  1.00 99.99     0.164 HD
BRANCH  29  31
ATOM     31  CA  MET     4      34.052  26.620  31.348  1.00  0.00     0.160 C 
BRANCH  31  32
ATOM     32  CB  MET     4      34.596  25.454  32.187  1.00  0.00     0.043 C 
BRANCH  32  33
ATOM     33  CG  MET     4      36.124  25.332  32.247  1.00  0.00     0.060 C 
BRANCH  33  34
ATOM     34  SD  MET     4      36.974  25.069  30.644  1.00  0.00    -0.139 SA
ATOM     35  CE  MET     4      36.257  23.538  30.084  1.00  0.00     0.069 C 
ENDBRANCH  33  34
ENDBRANCH  32  33
ENDBRANCH  31  32
BRANCH  31  36
ATOM     36  C   MET     4      32.517  26.478  31.314  1.00  0.00     0.251 C 
ATOM     37  N   ILE     5      31.801  27.348  32.026  1.00  0.00    -0.338 N 
ATOM     38  H   ILE     5      32.200  28.171  32.432  1.00 99.99     0.164 HD
ATOM     39  O   MET     4      32.001  25.519  30.739  1.00  0.00    -0.271 OA
BRANCH  37  40
ATOM     40  CA  ILE     5      30.350  27.156  32.254  1.00  0.00     0.160 C 
BRANCH  40  41
ATOM     41  C   ILE     5      29.448  27.810  31.184  1.00  0.00     0.254 C 
ATOM     42  N   PRO     6      28.398  27.106  30.727  1.00  0.00    -0.312 N 
ATOM     43  CA  PRO     6      27.454  27.621  29.714  1.00  0.00     0.163 C 
ATOM     44  CD  PRO     6      28.076  25.703  31.060  1.00  0.00     0.105 C 
ATOM     45  CB  PRO     6      26.638  26.402  29.270  1.00  0.00     0.034 C 
ATOM     46  CG  PRO     6      26.674  25.483  30.490  1.00  0.00     0.027 C 
ATOM     47  O   ILE     5      29.708  28.949  30.785  1.00  0.00    -0.270 OA
BRANCH  43  48
ATOM     48  C   PRO     6      26.586  28.800  30.188  1.00  0.00     0.251 C 
ATOM     49  N   ILE     7      27.176  29.977  30.013  1.00  0.00    -0.338 N 
ATOM     50  H   ILE     7      28.164  30.009  29.849  1.00 99.99     0.164 HD
ATOM     51  O   PRO     6      25.578  28.637  30.871  1.00  0.00    -0.271 OA
BRANCH  49  52
ATOM     52  CA  ILE     7      26.541  31.308  30.131  1.00  0.00     0.160 C 
BRANCH  52  53
ATOM     53  C   ILE     7      26.904  32.060  28.832  1.00  0.00     0.254 C 
ATOM     54  O   ILE     7      28.086  32.042  28.470  1.00  0.00    -0.270 OA
ATOM     55  N   PRO     8      25.951  32.759  28.188  1.00  0.00    -0.312 N 
ATOM     56  CA  PRO     8      26.197  33.546  26.959  1.00  0.00     0.163 C 
ATOM     57  CD  PRO     8      24.515  32.787  28.540  1.00  0.00     0.105 C 
ATOM     58  CB  PRO     8      24.795  33.809  26.398  1.00  0.00     0.034 C 
ATOM     59  CG  PRO     8      23.923  33.880  27.650  1.00  0.00     0.027 C 
BRANCH  56  60
ATOM     60  C   PRO     8      27.031  34.830  27.172  1.00  0.00     0.251 C 
ATOM     61  O   PRO     8      26.613  35.929  26.835  1.00  0.00    -0.271 OA
ATOM     62  N   ARG     9      28.202  34.629  27.769  1.00  0.00    -0.338 N 
ATOM     63  H   ARG     9      28.422  33.689  28.024  1.00 99.99     0.164 HD
BRANCH  62  64
ATOM     64  CA  ARG     9      29.276  35.598  28.096  1.00  0.00     0.159 C 
BRANCH  64  65
ATOM     65  CB  ARG     9      28.985  36.400  29.375  1.00  0.00     0.034 C 
BRANCH  65  66
ATOM     66  CG  ARG     9      27.941  37.511  29.213  1.00  0.00     0.027 C 
BRANCH  66  67
ATOM     67  CD  ARG     9      28.336  38.520  28.128  1.00  0.00     0.116 C 
BRANCH  67  68
ATOM     68  NE  ARG     9      27.327  39.589  28.039  1.00  0.00    -0.212 N 
ATOM     69  CZ  ARG     9      26.234  39.609  27.268  1.00  0.00     0.666 C 
ATOM     70  NH1 ARG     9      25.921  38.619  26.445  1.00  0.00    -0.235 N 
ATOM     71  NH2 ARG     9      25.376  40.613  27.360  1.00  0.00    -0.235 N 
ATOM     72 2HH1 ARG     9      26.486  37.791  26.442  1.00 99.99     0.174 HD
ATOM     73 1HH1 ARG     9      25.100  38.659  25.881  1.00 99.99     0.174 HD
ATOM     74 1HH2 ARG     9      24.566  40.612  26.778  1.00 99.99     0.174 HD
ATOM     75 2HH2 ARG     9      25.533  41.356  28.005  1.00 99.99     0.174 HD
ATOM     76  HE  ARG     9      27.513  40.381  28.614  1.00 99.99     0.178 HD
ENDBRANCH  67  68
ENDBRANCH  66  67
ENDBRANCH  65  66
ENDBRANCH  64  65
BRANCH  64  77
ATOM     77  C   ARG     9      30.638  34.895  28.276  1.00  0.00     0.251 C 
ATOM     78  O   ARG     9      31.684  35.524  28.152  1.00  0.00    -0.271 OA
ATOM     79  N   CYS    10      30.582  33.670  28.805  1.00  0.00    -0.337 N 
ATOM     80  H   CYS    10      29.803  33.389  29.361  1.00 99.99     0.164 HD
BRANCH  79  81
ATOM     81  CA  CYS    10      31.696  32.692  28.823  1.00  0.00     0.170 C 
BRANCH  81  82
ATOM     82  CB  CYS    10      31.464  31.670  29.940  1.00  0.00     0.085 C 
BRANCH  82  83
ATOM     83  SG  CYS    10      31.198  32.394  31.599  1.00  0.00    -0.165 SA
ATOM     84  HG  CYS    10      31.125  31.223  32.228  1.00 99.99     0.102 HD
ENDBRANCH  82  83
ENDBRANCH  81  82
BRANCH  81  85
ATOM     85  C   CYS    10      31.837  31.933  27.484  1.00  0.00     0.252 C 
ATOM     86  O   CYS    10      32.789  31.190  27.266  1.00  0.00    -0.271 OA
ATOM     87  N   TYR    11      30.724  31.923  26.756  1.00  0.00    -0.336 N 
ATOM     88  H   TYR    11      29.876  32.271  27.147  1.00 99.99     0.164 HD
BRANCH  87  89
ATOM     89  CA  TYR    11      30.579  31.469  25.360  1.00  0.00     0.172 C 
BRANCH  89  90
ATOM     90  CB  TYR    11      29.445  30.433  25.343  1.00  0.00     0.058 C 
BRANCH  90  91
ATOM     91  CG  TYR    11      29.259  29.679  24.022  1.00  0.00    -0.044 A 
ATOM     92  CD2 TYR    11      28.844  30.322  22.859  1.00  0.00     0.011 A 
ATOM     93  CE2 TYR    11      28.648  29.599  21.690  1.00  0.00     0.037 A 
ATOM     94  CZ  TYR    11      28.861  28.226  21.682  1.00  0.00     0.065 A 
ATOM     95  CE1 TYR    11      29.257  27.577  22.844  1.00  0.00     0.037 A 
ATOM     96  CD1 TYR    11      29.458  28.305  24.010  1.00  0.00     0.011 A 
BRANCH  94  97
ATOM     97  OH  TYR    11      28.698  27.512  20.538  1.00  0.00    -0.361 OA
ATOM     98  HH  TYR    11      28.431  28.126  19.797  1.00 99.99     0.217 HD
ENDBRANCH  94  97
ENDBRANCH  90  91
ENDBRANCH  89  90
BRANCH  89  99
ATOM     99  C   TYR    11      30.151  32.706  24.550  1.00  0.00     0.207 C 
ATOM    100  O   TYR    11      30.782  32.988  23.510  1.00 99.99    -0.646 OA
ATOM    101  OXT TYR    11      29.222  33.380  25.058  1.00 99.99    -0.646 OA
ENDBRANCH  89  99
ENDBRANCH  87  89
ENDBRANCH  81  85
ENDBRANCH  79  81
ENDBRANCH  64  77
ENDBRANCH  62  64
ENDBRANCH  56  60
ENDBRANCH  52  53
BRANCH  52 102
ATOM    102  CB  ILE     7      27.059  32.032  31.402  1.00  0.00     0.029 C 
ATOM    103  CG2 ILE     7      26.762  33.545  31.400  1.00  0.00     0.002 C 
BRANCH 102 104
ATOM    104  CG1 ILE     7      26.500  31.345  32.662  1.00  0.00     0.002 C 
ATOM    105  CD  ILE     7      27.062  31.856  33.997  1.00  0.00     0.000 C 
ENDBRANCH 102 104
ENDBRANCH  52 102
ENDBRANCH  49  52
ENDBRANCH  43  48
ENDBRANCH  40  41
BRANCH  40 106
ATOM    106  CB  ILE     5      29.941  27.531  33.695  1.00  0.00     0.029 C 
ATOM    107  CG2 ILE     5      30.718  26.638  34.676  1.00  0.00     0.002 C 
BRANCH 106 108
ATOM    108  CG1 ILE     5      30.099  29.032  34.001  1.00  0.00     0.002 C 
ATOM    109  CD  ILE     5      29.518  29.469  35.353  1.00  0.00     0.000 C 
ENDBRANCH 106 108
ENDBRANCH  40 106
ENDBRANCH  37  40
ENDBRANCH  31  36
ENDBRANCH  29  31
ENDBRANCH  22  27
ENDBRANCH  20  22
ENDBRANCH  17  18
BRANCH  17 110
ATOM    110  CB  CYS     2      33.748  31.922  35.695  1.00  0.00     0.085 C 
BRANCH 110 111
ATOM    111  SG  CYS     2      33.383  32.122  37.480  1.00  0.00    -0.165 SA
ATOM    112  HG  CYS     2      33.701  33.410  37.559  1.00 99.99     0.102 HD
ENDBRANCH 110 111
ENDBRANCH  17 110
ENDBRANCH  15  17
ENDBRANCH   5  13
ENDBRANCH   1   5
TORSDOF 42
