REMARK WARNING: 32 MAX_TORS EXCEEDED!!!
REMARK  41 active torsions:
REMARK  status: ('A' for Active; 'I' for Inactive)
REMARK    1  A    between atoms: N_1  and  CA_2 
REMARK    2  A    between atoms: CA_2  and  C_3 
REMARK    3  A    between atoms: CA_2  and  CB_5 
REMARK       I    between atoms: C_3  and  N_12 
REMARK    4  A    between atoms: CB_5  and  CG_6 
REMARK    5  A    between atoms: N_12  and  CA_13 
REMARK    6  A    between atoms: CA_13  and  C_14 
REMARK    7  A    between atoms: CA_13  and  CB_16 
REMARK       I    between atoms: C_14  and  N_21 
REMARK    8  A    between atoms: CB_16  and  CG_17 
REMARK    9  A    between atoms: N_21  and  CA_22 
REMARK   10  A    between atoms: CA_22  and  CB_25 
REMARK   11  A    between atoms: CA_22  and  C_23 
REMARK       I    between atoms: C_23  and  N_34 
REMARK   12  A    between atoms: CB_25  and  CG_26 
REMARK   13  A    between atoms: CG_26  and  CD_27 
REMARK   14  A    between atoms: CD_27  and  CE_28 
REMARK   15  A    between atoms: CE_28  and  NZ_29 
REMARK   16  A    between atoms: N_34  and  CA_35 
REMARK   17  A    between atoms: CA_35  and  CB_38 
REMARK   18  A    between atoms: CA_35  and  C_36 
REMARK       I    between atoms: C_36  and  N_50 
REMARK   19  A    between atoms: CB_38  and  CG_39 
REMARK   20  A    between atoms: N_50  and  CA_51 
REMARK   21  A    between atoms: CA_51  and  CB_54 
REMARK   22  A    between atoms: CA_51  and  C_52 
REMARK       I    between atoms: C_52  and  N_59 
REMARK   23  A    between atoms: CB_54  and  CG_55 
REMARK   24  A    between atoms: N_59  and  CA_60 
REMARK   25  A    between atoms: CA_60  and  C_61 
REMARK   26  A    between atoms: CA_60  and  CB_63 
REMARK       I    between atoms: C_61  and  N_72 
REMARK   27  A    between atoms: CB_63  and  CG_64 
REMARK   28  A    between atoms: CG_64  and  CD_65 
REMARK   29  A    between atoms: CD_65  and  CE_66 
REMARK   30  A    between atoms: CE_66  and  NZ_67 
REMARK   31  A    between atoms: N_72  and  CA_73 
REMARK   32  A    between atoms: CA_73  and  C_74 
REMARK   33  A    between atoms: CA_73  and  CB_76 
REMARK       I    between atoms: C_74  and  N_85 
REMARK   34  A    between atoms: CB_76  and  CG_77 
REMARK   35  A    between atoms: CG_77  and  CD_78 
REMARK   36  A    between atoms: CD_78  and  CE_79 
REMARK   37  A    between atoms: CE_79  and  NZ_80 
REMARK   38  A    between atoms: N_85  and  CA_86 
REMARK   39  A    between atoms: CA_86  and  C_87 
REMARK   40  A    between atoms: CA_86  and  CB_89 
REMARK   41  A    between atoms: CB_89  and  CG_90 
ROOT
ATOM      1  N   LEU     1      22.417  26.973  31.044  1.00  0.00    -0.058 N 
ATOM      2  H1  LEU     1      22.907  27.704  31.520  1.00 99.99     0.276 HD
ATOM      3  H2  LEU     1      21.446  27.071  31.182  1.00 99.99     0.276 HD
ATOM      4  H3  LEU     1      22.648  26.104  31.472  1.00 99.99     0.276 HD
ENDROOT
BRANCH   1   5
ATOM      5  CA  LEU     1      22.787  26.981  29.612  1.00  0.00     0.255 C 
BRANCH   5   6
ATOM      6  C   LEU     1      23.789  28.127  29.311  1.00  0.00     0.259 C 
ATOM      7  O   LEU     1      24.914  28.009  29.786  1.00  0.00    -0.271 OA
ATOM      8  N   LEU     2      23.349  29.283  28.793  1.00  0.00    -0.338 N 
ATOM      9  H   LEU     2      22.385  29.397  28.551  1.00 99.99     0.164 HD
BRANCH   8  10
ATOM     10  CA  LEU     2      24.170  30.480  28.463  1.00  0.00     0.159 C 
BRANCH  10  11
ATOM     11  C   LEU     2      25.665  30.562  28.845  1.00  0.00     0.251 C 
ATOM     12  O   LEU     2      26.507  30.553  27.951  1.00  0.00    -0.271 OA
ATOM     13  N   LYS     3      25.983  30.609  30.144  1.00  0.00    -0.338 N 
ATOM     14  H   LYS     3      25.283  30.709  30.848  1.00 99.99     0.164 HD
BRANCH  13  15
ATOM     15  CA  LYS     3      27.373  30.604  30.665  1.00  0.00     0.159 C 
BRANCH  15  16
ATOM     16  CB  LYS     3      27.335  30.503  32.199  1.00  0.00     0.032 C 
BRANCH  16  17
ATOM     17  CG  LYS     3      28.712  30.704  32.849  1.00  0.00     0.004 C 
BRANCH  17  18
ATOM     18  CD  LYS     3      28.669  30.592  34.375  1.00  0.00     0.032 C 
BRANCH  18  19
ATOM     19  CE  LYS     3      30.074  30.765  34.960  1.00  0.00     0.206 C 
BRANCH  19  20
ATOM     20  NZ  LYS     3      30.080  30.718  36.431  1.00  0.00    -0.064 N 
ATOM     21  HZ2 LYS     3      29.513  31.458  36.794  1.00 99.99     0.275 HD
ATOM     22  HZ3 LYS     3      29.727  29.837  36.745  1.00 99.99     0.275 HD
ATOM     23  HZ1 LYS     3      31.018  30.833  36.760  1.00 99.99     0.275 HD
ENDBRANCH  19  20
ENDBRANCH  18  19
ENDBRANCH  17  18
ENDBRANCH  16  17
ENDBRANCH  15  16
BRANCH  15  24
ATOM     24  C   LYS     3      28.272  29.496  30.065  1.00  0.00     0.251 C 
ATOM     25  N   TRP     4      27.704  28.315  29.815  1.00  0.00    -0.337 N 
ATOM     26  H   TRP     4      26.740  28.136  30.028  1.00 99.99     0.164 HD
ATOM     27  O   LYS     3      29.432  29.752  29.756  1.00  0.00    -0.271 OA
BRANCH  25  28
ATOM     28  CA  TRP     4      28.419  27.185  29.185  1.00  0.00     0.164 C 
BRANCH  28  29
ATOM     29  CB  TRP     4      27.574  25.918  29.366  1.00  0.00     0.059 C 
BRANCH  29  30
ATOM     30  CG  TRP     4      28.299  24.656  28.897  1.00  0.00    -0.016 A 
ATOM     31  CD2 TRP     4      28.114  24.014  27.685  1.00  0.00    -0.001 A 
ATOM     32  CE3 TRP     4      27.201  24.184  26.653  1.00  0.00     0.014 A 
ATOM     33  CE2 TRP     4      29.080  23.023  27.616  1.00  0.00     0.042 A 
ATOM     34  CZ3 TRP     4      27.260  23.356  25.541  1.00  0.00     0.001 A 
ATOM     35  CH2 TRP     4      28.227  22.359  25.467  1.00  0.00     0.002 A 
ATOM     36  CZ2 TRP     4      29.140  22.194  26.504  1.00  0.00     0.030 A 
ATOM     37  NE1 TRP     4      29.792  23.078  28.740  1.00  0.00    -0.365 N 
ATOM     38  CD1 TRP     4      29.319  24.058  29.512  1.00  0.00     0.097 A 
ATOM     39  HE1 TRP     4      30.568  22.489  28.968  1.00 99.99     0.165 HD
ENDBRANCH  29  30
ENDBRANCH  28  29
BRANCH  28  40
ATOM     40  C   TRP     4      28.768  27.473  27.708  1.00  0.00     0.251 C 
ATOM     41  N   LEU     5      27.750  27.863  26.938  1.00  0.00    -0.338 N 
ATOM     42  H   LEU     5      26.816  27.843  27.285  1.00 99.99     0.164 HD
ATOM     43  O   TRP     4      29.942  27.563  27.358  1.00  0.00    -0.271 OA
BRANCH  41  44
ATOM     44  CA  LEU     5      27.851  28.304  25.526  1.00  0.00     0.159 C 
BRANCH  44  45
ATOM     45  CB  LEU     5      26.452  28.643  24.996  1.00  0.00     0.032 C 
BRANCH  45  46
ATOM     46  CG  LEU     5      25.496  27.452  24.868  1.00  0.00     0.002 C 
ATOM     47  CD2 LEU     5      25.959  26.472  23.785  1.00  0.00     0.000 C 
ATOM     48  CD1 LEU     5      24.105  27.981  24.516  1.00  0.00     0.000 C 
ENDBRANCH  45  46
ENDBRANCH  44  45
BRANCH  44  49
ATOM     49  C   LEU     5      28.765  29.519  25.258  1.00  0.00     0.251 C 
ATOM     50  N   LYS     6      29.031  30.285  26.315  1.00  0.00    -0.338 N 
ATOM     51  H   LYS     6      28.470  30.225  27.141  1.00 99.99     0.164 HD
ATOM     52  O   LEU     5      29.000  29.862  24.103  1.00  0.00    -0.271 OA
BRANCH  50  53
ATOM     53  CA  LYS     6      29.972  31.427  26.307  1.00  0.00     0.159 C 
BRANCH  53  54
ATOM     54  C   LYS     6      31.388  31.120  26.840  1.00  0.00     0.251 C 
ATOM     55  O   LYS     6      32.220  32.019  26.949  1.00  0.00    -0.271 OA
ATOM     56  N   LYS     7      31.591  29.888  27.298  1.00  0.00    -0.338 N 
ATOM     57  H   LYS     7      30.833  29.240  27.384  1.00 99.99     0.164 HD
BRANCH  56  58
ATOM     58  CA  LYS     7      32.878  29.395  27.836  1.00  0.00     0.159 C 
BRANCH  58  59
ATOM     59  C   LYS     7      33.465  28.241  26.989  1.00  0.00     0.251 C 
ATOM     60  O   LYS     7      34.588  27.789  27.206  1.00  0.00    -0.271 OA
ATOM     61  N   LEU     8      32.580  27.594  26.236  1.00  0.00    -0.336 N 
ATOM     62  H   LEU     8      31.601  27.665  26.430  1.00 99.99     0.164 HD
BRANCH  61  63
ATOM     63  CA  LEU     8      32.914  26.670  25.134  1.00  0.00     0.168 C 
BRANCH  63  64
ATOM     64  C   LEU     8      33.398  27.473  23.908  1.00  0.00     0.206 C 
ATOM     65  O   LEU     8      34.472  27.130  23.369  1.00 99.99    -0.646 OA
ATOM     66  OXT LEU     8      32.687  28.447  23.575  1.00 99.99    -0.646 OA
ENDBRANCH  63  64
BRANCH  63  67
ATOM     67  CB  LEU     8      31.615  25.920  24.811  1.00  0.00     0.033 C 
BRANCH  67  68
ATOM     68  CG  LEU     8      31.738  24.824  23.748  1.00  0.00     0.002 C 
ATOM     69  CD2 LEU     8      30.348  24.460  23.226  1.00  0.00     0.000 C 
ATOM     70  CD1 LEU     8      32.460  23.591  24.298  1.00  0.00     0.000 C 
ENDBRANCH  67  68
ENDBRANCH  63  67
ENDBRANCH  61  63
ENDBRANCH  58  59
BRANCH  58  71
ATOM     71  CB  LYS     7      32.652  28.952  29.285  1.00  0.00     0.032 C 
BRANCH  71  72
ATOM     72  CG  LYS     7      33.981  28.900  30.038  1.00  0.00     0.004 C 
BRANCH  72  73
ATOM     73  CD  LYS     7      33.999  27.760  31.053  1.00  0.00     0.032 C 
BRANCH  73  74
ATOM     74  CE  LYS     7      35.452  27.423  31.388  1.00  0.00     0.206 C 
BRANCH  74  75
ATOM     75  NZ  LYS     7      35.538  26.286  32.312  1.00  0.00    -0.064 N 
ATOM     76  HZ3 LYS     7      35.088  25.490  31.906  1.00 99.99     0.275 HD
ATOM     77  HZ2 LYS     7      35.089  26.529  33.171  1.00 99.99     0.275 HD
ATOM     78  HZ1 LYS     7      36.501  26.076  32.482  1.00 99.99     0.275 HD
ENDBRANCH  74  75
ENDBRANCH  73  74
ENDBRANCH  72  73
ENDBRANCH  71  72
ENDBRANCH  58  71
ENDBRANCH  56  58
ENDBRANCH  53  54
BRANCH  53  79
ATOM     79  CB  LYS     6      29.389  32.566  27.146  1.00  0.00     0.032 C 
BRANCH  79  80
ATOM     80  CG  LYS     6      28.205  33.277  26.492  1.00  0.00     0.004 C 
BRANCH  80  81
ATOM     81  CD  LYS     6      27.854  34.497  27.341  1.00  0.00     0.032 C 
BRANCH  81  82
ATOM     82  CE  LYS     6      26.743  35.331  26.708  1.00  0.00     0.206 C 
BRANCH  82  83
ATOM     83  NZ  LYS     6      26.559  36.573  27.471  1.00  0.00    -0.064 N 
ATOM     84  HZ3 LYS     6      27.414  37.093  27.459  1.00 99.99     0.275 HD
ATOM     85  HZ1 LYS     6      25.833  37.119  27.053  1.00 99.99     0.275 HD
ATOM     86  HZ2 LYS     6      26.320  36.354  28.416  1.00 99.99     0.275 HD
ENDBRANCH  82  83
ENDBRANCH  81  82
ENDBRANCH  80  81
ENDBRANCH  79  80
ENDBRANCH  53  79
ENDBRANCH  50  53
ENDBRANCH  44  49
ENDBRANCH  41  44
ENDBRANCH  28  40
ENDBRANCH  25  28
ENDBRANCH  15  24
ENDBRANCH  13  15
ENDBRANCH  10  11
BRANCH  10  87
ATOM     87  CB  LEU     2      23.437  31.770  28.862  1.00  0.00     0.032 C 
BRANCH  87  88
ATOM     88  CG  LEU     2      22.182  32.048  28.020  1.00  0.00     0.002 C 
ATOM     89  CD2 LEU     2      22.513  32.237  26.534  1.00  0.00     0.000 C 
ATOM     90  CD1 LEU     2      21.479  33.299  28.549  1.00  0.00     0.000 C 
ENDBRANCH  87  88
ENDBRANCH  10  87
ENDBRANCH   8  10
ENDBRANCH   5   6
BRANCH   5  91
ATOM     91  CB  LEU     1      21.517  26.967  28.735  1.00  0.00     0.040 C 
BRANCH  91  92
ATOM     92  CG  LEU     1      21.735  26.450  27.303  1.00  0.00     0.002 C 
ATOM     93  CD2 LEU     1      20.430  26.547  26.508  1.00  0.00     0.000 C 
ATOM     94  CD1 LEU     1      22.232  24.999  27.282  1.00  0.00     0.000 C 
ENDBRANCH  91  92
ENDBRANCH   5  91
ENDBRANCH   1   5
TORSDOF 41
