REMARK WARNING: 32 MAX_TORS EXCEEDED!!!
REMARK  41 active torsions:
REMARK  status: ('A' for Active; 'I' for Inactive)
REMARK    1  A    between atoms: N_1  and  CA_2 
REMARK    2  A    between atoms: CA_2  and  CB_5 
REMARK    3  A    between atoms: CA_2  and  C_3 
REMARK       I    between atoms: C_3  and  N_15 
REMARK    4  A    between atoms: CB_5  and  CG_6 
REMARK    5  A    between atoms: N_15  and  CA_16 
REMARK    6  A    between atoms: CA_16  and  CB_19 
REMARK    7  A    between atoms: CA_16  and  C_17 
REMARK       I    between atoms: C_17  and  N_28 
REMARK    8  A    between atoms: CB_19  and  CG_20 
REMARK    9  A    between atoms: CG_20  and  CD_21 
REMARK   10  A    between atoms: CD_21  and  CE_22 
REMARK   11  A    between atoms: CE_22  and  NZ_23 
REMARK   12  A    between atoms: N_28  and  CA_29 
REMARK   13  A    between atoms: CA_29  and  C_30 
REMARK   14  A    between atoms: CA_29  and  CB_32 
REMARK       I    between atoms: C_30  and  N_37 
REMARK   15  A    between atoms: CB_32  and  OG1_33 
REMARK   16  A    between atoms: N_37  and  CA_38 
REMARK   17  A    between atoms: CA_38  and  C_39 
REMARK   18  A    between atoms: CA_38  and  CB_41 
REMARK       I    between atoms: C_39  and  N_46 
REMARK   19  A    between atoms: CB_41  and  CG_42 
REMARK   20  A    between atoms: N_46  and  CA_47 
REMARK   21  A    between atoms: CA_47  and  C_48 
REMARK   22  A    between atoms: CA_47  and  CB_50 
REMARK       I    between atoms: C_48  and  N_54 
REMARK   23  A    between atoms: CB_50  and  OG_51 
REMARK   24  A    between atoms: N_54  and  CA_55 
REMARK   25  A    between atoms: CA_55  and  CB_58 
REMARK   26  A    between atoms: CA_55  and  C_56 
REMARK       I    between atoms: C_56  and  N_66 
REMARK   27  A    between atoms: CB_58  and  CG_59 
REMARK   28  A    between atoms: N_66  and  CA_67 
REMARK   29  A    between atoms: CA_67  and  C_68 
REMARK   30  A    between atoms: CA_67  and  CB_70 
REMARK       I    between atoms: C_68  and  N_74 
REMARK   31  A    between atoms: N_74  and  CA_75 
REMARK   32  A    between atoms: CA_75  and  C_76 
REMARK       I    between atoms: C_76  and  N_79 
REMARK   33  A    between atoms: N_79  and  CA_80 
REMARK   34  A    between atoms: CA_80  and  CB_83 
REMARK   35  A    between atoms: CA_80  and  C_81 
REMARK       I    between atoms: C_81  and  N_88 
REMARK   36  A    between atoms: CB_83  and  CG_84 
REMARK   37  A    between atoms: N_88  and  CA_89 
REMARK   38  A    between atoms: CA_89  and  C_90 
REMARK   39  A    between atoms: CA_89  and  CB_92 
REMARK   40  A    between atoms: CB_92  and  CG_93 
REMARK   41  A    between atoms: CG_93  and  SD_94 
ROOT
ATOM      1  N   HIS     1      25.758  35.832  26.283  1.00  0.00    -0.057 N 
ATOM      2  H1  HIS     1      26.574  36.393  26.128  1.00 99.99     0.276 HD
ATOM      3  H2  HIS     1      25.576  35.311  25.468  1.00 99.99     0.276 HD
ATOM      4  H3  HIS     1      24.977  36.416  26.408  1.00 99.99     0.276 HD
ENDROOT
BRANCH   1   5
ATOM      5  CA  HIS     1      26.035  34.972  27.455  1.00  0.00     0.261 C 
BRANCH   5   6
ATOM      6  CB  HIS     1      25.845  33.504  27.015  1.00  0.00     0.087 C 
BRANCH   6   7
ATOM      7  CG  HIS     1      26.050  32.429  28.095  1.00  0.00     0.080 A 
ATOM      8  CD2 HIS     1      25.383  31.281  28.226  1.00  0.00     0.089 A 
ATOM      9  NE2 HIS     1      25.983  30.547  29.164  1.00  0.00    -0.334 N 
ATOM     10  HD1 HIS     1      25.676  29.665  29.520  1.00 99.99     0.168 HD
ATOM     11  CE1 HIS     1      27.023  31.237  29.615  1.00  0.00     0.175 A 
ATOM     12  ND1 HIS     1      27.046  32.398  28.970  1.00  0.00    -0.229 NA
ENDBRANCH   6   7
ENDBRANCH   5   6
BRANCH   5  13
ATOM     13  C   HIS     1      27.461  35.303  27.965  1.00  0.00     0.259 C 
ATOM     14  O   HIS     1      28.270  35.858  27.217  1.00  0.00    -0.271 OA
ATOM     15  N   LYS     2      27.687  35.178  29.271  1.00  0.00    -0.338 N 
ATOM     16  H   LYS     2      27.086  34.627  29.847  1.00 99.99     0.164 HD
BRANCH  15  17
ATOM     17  CA  LYS     2      28.990  35.506  29.884  1.00  0.00     0.159 C 
BRANCH  17  18
ATOM     18  CB  LYS     2      28.779  35.927  31.336  1.00  0.00     0.032 C 
BRANCH  18  19
ATOM     19  CG  LYS     2      28.102  37.275  31.581  1.00  0.00     0.004 C 
BRANCH  19  20
ATOM     20  CD  LYS     2      28.025  37.399  33.101  1.00  0.00     0.032 C 
BRANCH  20  21
ATOM     21  CE  LYS     2      27.701  38.793  33.627  1.00  0.00     0.206 C 
BRANCH  21  22
ATOM     22  NZ  LYS     2      27.929  38.785  35.079  1.00  0.00    -0.064 N 
ATOM     23  HZ1 LYS     2      27.728  39.686  35.464  1.00 99.99     0.275 HD
ATOM     24  HZ2 LYS     2      27.342  38.098  35.506  1.00 99.99     0.275 HD
ATOM     25  HZ3 LYS     2      28.886  38.553  35.257  1.00 99.99     0.275 HD
ENDBRANCH  21  22
ENDBRANCH  20  21
ENDBRANCH  19  20
ENDBRANCH  18  19
ENDBRANCH  17  18
BRANCH  17  26
ATOM     26  C   LYS     2      29.937  34.293  29.883  1.00  0.00     0.251 C 
ATOM     27  O   LYS     2      29.606  33.226  30.404  1.00  0.00    -0.271 OA
ATOM     28  N   THR     3      31.204  34.565  29.579  1.00  0.00    -0.336 N 
ATOM     29  H   THR     3      31.528  35.488  29.361  1.00 99.99     0.164 HD
BRANCH  28  30
ATOM     30  CA  THR     3      32.252  33.519  29.517  1.00  0.00     0.186 C 
BRANCH  30  31
ATOM     31  C   THR     3      32.517  32.778  30.836  1.00  0.00     0.253 C 
ATOM     32  O   THR     3      32.677  31.560  30.809  1.00  0.00    -0.270 OA
ATOM     33  N   ASP     4      32.320  33.480  31.957  1.00  0.00    -0.337 N 
ATOM     34  H   ASP     4      32.103  34.452  31.899  1.00 99.99     0.164 HD
BRANCH  33  35
ATOM     35  CA  ASP     4      32.448  32.936  33.330  1.00  0.00     0.170 C 
BRANCH  35  36
ATOM     36  C   ASP     4      31.775  31.560  33.518  1.00  0.00     0.252 C 
ATOM     37  O   ASP     4      32.450  30.536  33.608  1.00  0.00    -0.271 OA
ATOM     38  N   SER     5      30.472  31.560  33.252  1.00  0.00    -0.336 N 
ATOM     39  H   SER     5      29.979  32.419  33.103  1.00 99.99     0.164 HD
BRANCH  38  40
ATOM     40  CA  SER     5      29.581  30.387  33.317  1.00  0.00     0.189 C 
BRANCH  40  41
ATOM     41  C   SER     5      29.924  29.336  32.253  1.00  0.00     0.254 C 
ATOM     42  O   SER     5      30.075  28.163  32.585  1.00  0.00    -0.270 OA
ATOM     43  N   PHE     6      30.182  29.778  31.020  1.00  0.00    -0.337 N 
ATOM     44  H   PHE     6      30.249  30.752  30.799  1.00 99.99     0.164 HD
BRANCH  43  45
ATOM     45  CA  PHE     6      30.460  28.855  29.900  1.00  0.00     0.164 C 
BRANCH  45  46
ATOM     46  CB  PHE     6      30.409  29.620  28.572  1.00  0.00     0.056 C 
BRANCH  46  47
ATOM     47  CG  PHE     6      30.501  28.683  27.366  1.00  0.00    -0.044 A 
ATOM     48  CD1 PHE     6      29.417  27.893  26.995  1.00  0.00     0.008 A 
ATOM     49  CE1 PHE     6      29.508  27.065  25.883  1.00  0.00     0.001 A 
ATOM     50  CZ  PHE     6      30.681  27.025  25.140  1.00  0.00     0.000 A 
ATOM     51  CE2 PHE     6      31.759  27.823  25.503  1.00  0.00     0.001 A 
ATOM     52  CD2 PHE     6      31.672  28.646  26.619  1.00  0.00     0.008 A 
ENDBRANCH  46  47
ENDBRANCH  45  46
BRANCH  45  53
ATOM     53  C   PHE     6      31.764  28.049  30.070  1.00  0.00     0.251 C 
ATOM     54  O   PHE     6      31.731  26.823  29.993  1.00  0.00    -0.271 OA
ATOM     55  N   VAL     7      32.833  28.721  30.498  1.00  0.00    -0.338 N 
ATOM     56  H   VAL     7      32.819  29.718  30.617  1.00 99.99     0.164 HD
BRANCH  55  57
ATOM     57  CA  VAL     7      34.144  28.089  30.786  1.00  0.00     0.159 C 
BRANCH  57  58
ATOM     58  C   VAL     7      34.063  27.112  31.987  1.00  0.00     0.251 C 
ATOM     59  O   VAL     7      34.811  26.138  32.040  1.00  0.00    -0.271 OA
ATOM     60  N   GLY     8      33.158  27.405  32.935  1.00  0.00    -0.336 N 
ATOM     61  H   GLY     8      32.696  28.297  32.998  1.00 99.99     0.164 HD
BRANCH  60  62
ATOM     62  CA  GLY     8      32.825  26.506  34.065  1.00  0.00     0.189 C 
BRANCH  62  63
ATOM     63  C   GLY     8      31.968  25.271  33.714  1.00  0.00     0.253 C 
ATOM     64  N   LEU     9      31.206  25.369  32.624  1.00  0.00    -0.337 N 
ATOM     65  H   LEU     9      31.110  26.243  32.148  1.00 99.99     0.164 HD
ATOM     66  O   GLY     8      31.883  24.340  34.511  1.00  0.00    -0.270 OA
BRANCH  64  67
ATOM     67  CA  LEU     9      30.314  24.299  32.118  1.00  0.00     0.159 C 
BRANCH  67  68
ATOM     68  CB  LEU     9      29.044  24.920  31.521  1.00  0.00     0.032 C 
BRANCH  68  69
ATOM     69  CG  LEU     9      28.058  25.461  32.562  1.00  0.00     0.002 C 
ATOM     70  CD2 LEU     9      27.423  24.327  33.374  1.00  0.00     0.000 C 
ATOM     71  CD1 LEU     9      26.960  26.252  31.848  1.00  0.00     0.000 C 
ENDBRANCH  68  69
ENDBRANCH  67  68
BRANCH  67  72
ATOM     72  C   LEU     9      30.915  23.332  31.081  1.00  0.00     0.251 C 
ATOM     73  O   LEU     9      30.321  22.298  30.779  1.00  0.00    -0.271 OA
ATOM     74  N   MET    10      32.036  23.727  30.482  1.00  0.00    -0.336 N 
ATOM     75  H   MET    10      32.485  24.582  30.740  1.00 99.99     0.164 HD
BRANCH  74  76
ATOM     76  CA  MET    10      32.716  22.970  29.406  1.00  0.00     0.169 C 
BRANCH  76  77
ATOM     77  C   MET    10      33.914  22.156  29.929  1.00  0.00     0.206 C 
ATOM     78  O   MET    10      33.995  20.954  29.598  1.00 99.99    -0.646 OA
ATOM     79  OXT MET    10      34.750  22.781  30.617  1.00 99.99    -0.646 OA
ENDBRANCH  76  77
BRANCH  76  80
ATOM     80  CB  MET    10      33.234  23.967  28.363  1.00  0.00     0.045 C 
BRANCH  80  81
ATOM     81  CG  MET    10      32.158  24.641  27.502  1.00  0.00     0.060 C 
BRANCH  81  82
ATOM     82  SD  MET    10      31.373  23.577  26.232  1.00  0.00    -0.139 SA
ATOM     83  CE  MET    10      32.782  22.865  25.405  1.00  0.00     0.069 C 
ENDBRANCH  81  82
ENDBRANCH  80  81
ENDBRANCH  76  80
ENDBRANCH  74  76
ENDBRANCH  67  72
ENDBRANCH  64  67
ENDBRANCH  62  63
ENDBRANCH  60  62
ENDBRANCH  57  58
BRANCH  57  84
ATOM     84  CB  VAL     7      35.228  29.181  30.945  1.00  0.00     0.029 C 
ATOM     85  CG2 VAL     7      35.348  30.026  29.670  1.00  0.00     0.002 C 
ATOM     86  CG1 VAL     7      36.621  28.617  31.250  1.00  0.00     0.002 C 
ENDBRANCH  57  84
ENDBRANCH  55  57
ENDBRANCH  45  53
ENDBRANCH  43  45
ENDBRANCH  40  41
BRANCH  40  87
ATOM     87  CB  SER     5      28.124  30.829  33.122  1.00  0.00     0.169 C 
BRANCH  87  88
ATOM     88  OG  SER     5      27.766  31.848  34.060  1.00  0.00    -0.380 OA
ATOM     89  HG  SER     5      26.816  32.132  33.917  1.00 99.99     0.211 HD
ENDBRANCH  87  88
ENDBRANCH  40  87
ENDBRANCH  38  40
ENDBRANCH  35  36
BRANCH  35  90
ATOM     90  CB  ASP     4      31.978  33.974  34.375  1.00  0.00     0.129 C 
BRANCH  90  91
ATOM     91  CG  ASP     4      30.673  34.740  34.095  1.00  0.00     0.188 C 
ATOM     92  OD1 ASP     4      29.643  34.094  33.807  1.00  0.00    -0.647 OA
ATOM     93  OD2 ASP     4      30.762  35.983  34.033  1.00  0.00    -0.647 OA
ENDBRANCH  90  91
ENDBRANCH  35  90
ENDBRANCH  33  35
ENDBRANCH  30  31
BRANCH  30  94
ATOM     94  CB  THR     3      33.570  34.046  28.940  1.00  0.00     0.140 C 
ATOM     95  CG2 THR     3      33.502  34.141  27.414  1.00  0.00     0.034 C 
BRANCH  94  96
ATOM     96  OG1 THR     3      33.898  35.301  29.545  1.00  0.00    -0.382 OA
ATOM     97  HG1 THR     3      34.765  35.630  29.159  1.00 99.99     0.210 HD
ENDBRANCH  94  96
ENDBRANCH  30  94
ENDBRANCH  28  30
ENDBRANCH  17  26
ENDBRANCH  15  17
ENDBRANCH   5  13
ENDBRANCH   1   5
TORSDOF 41
