REMARK WARNING: 32 MAX_TORS EXCEEDED!!!
REMARK  82 active torsions:
REMARK  status: ('A' for Active; 'I' for Inactive)
REMARK    1  A    between atoms: N_1  and  CA_2 
REMARK    2  A    between atoms: CA_2  and  CB_5 
REMARK    3  A    between atoms: CA_2  and  C_3 
REMARK       I    between atoms: C_3  and  N_12 
REMARK    4  A    between atoms: CB_5  and  CG_6 
REMARK    5  A    between atoms: N_12  and  CA_13 
REMARK    6  A    between atoms: CA_13  and  C_14 
REMARK       I    between atoms: C_14  and  N_18 
REMARK    7  A    between atoms: N_18  and  CA_19 
REMARK    8  A    between atoms: CA_19  and  CB_22 
REMARK    9  A    between atoms: CA_19  and  C_20 
REMARK       I    between atoms: C_20  and  N_27 
REMARK   10  A    between atoms: CB_22  and  CG_23 
REMARK   11  A    between atoms: N_27  and  CA_28 
REMARK   12  A    between atoms: CA_28  and  CB_31 
REMARK   13  A    between atoms: CA_28  and  C_29 
REMARK       I    between atoms: C_29  and  N_40 
REMARK   14  A    between atoms: CB_31  and  CG_32 
REMARK   15  A    between atoms: CG_32  and  CD_33 
REMARK   16  A    between atoms: CD_33  and  CE_34 
REMARK   17  A    between atoms: CE_34  and  NZ_35 
REMARK   18  A    between atoms: N_40  and  CA_41 
REMARK   19  A    between atoms: CA_41  and  CB_44 
REMARK   20  A    between atoms: CA_41  and  C_42 
REMARK       I    between atoms: C_42  and  N_48 
REMARK   21  A    between atoms: CB_44  and  OG_45 
REMARK   22  A    between atoms: N_48  and  CA_49 
REMARK   23  A    between atoms: CA_49  and  C_50 
REMARK       I    between atoms: C_50  and  N_53 
REMARK   24  A    between atoms: N_53  and  CA_54 
REMARK   25  A    between atoms: CA_54  and  C_55 
REMARK       I    between atoms: C_55  and  N_58 
REMARK   26  A    between atoms: N_58  and  CA_59 
REMARK   27  A    between atoms: CA_59  and  CB_62 
REMARK   28  A    between atoms: CA_59  and  C_60 
REMARK       I    between atoms: C_60  and  N_74 
REMARK   29  A    between atoms: CB_62  and  CG_63 
REMARK   30  A    between atoms: N_74  and  CA_75 
REMARK   31  A    between atoms: CA_75  and  C_76 
REMARK   32  A    between atoms: CA_75  and  CB_78 
REMARK       I    between atoms: C_76  and  N_83 
REMARK   33  A    between atoms: CB_78  and  CG_79 
REMARK   34  A    between atoms: N_83  and  CA_84 
REMARK   35  A    between atoms: CA_84  and  CB_87 
REMARK   36  A    between atoms: CA_84  and  C_85 
REMARK       I    between atoms: C_85  and  N_100 
REMARK   37  A    between atoms: CB_87  and  CG_88 
REMARK   38  A    between atoms: CG_88  and  CD_89 
REMARK   39  A    between atoms: CD_89  and  NE_90 
REMARK       I    between atoms: NE_90  and  CZ_91 
REMARK       I    between atoms: CZ_91  and  NH1_92 
REMARK   40  A    between atoms: N_100  and  CA_101 
REMARK   41  A    between atoms: CA_101  and  CB_104 
REMARK   42  A    between atoms: CA_101  and  C_102 
REMARK       I    between atoms: C_102  and  N_109 
REMARK   43  A    between atoms: CB_104  and  CG_105 
REMARK   44  A    between atoms: N_109  and  CA_110 
REMARK   45  A    between atoms: CA_110  and  CB_113 
REMARK   46  A    between atoms: CA_110  and  C_111 
REMARK       I    between atoms: C_111  and  N_121 
REMARK   47  A    between atoms: CB_113  and  CG_114 
REMARK   48  A    between atoms: N_121  and  CA_122 
REMARK   49  A    between atoms: CA_122  and  C_123 
REMARK       I    between atoms: C_123  and  N_126 
REMARK   50  A    between atoms: N_126  and  CA_127 
REMARK   51  A    between atoms: CA_127  and  CB_130 
REMARK   52  A    between atoms: CA_127  and  C_128 
REMARK       I    between atoms: C_128  and  N_135 
REMARK   53  A    between atoms: CB_130  and  CG_131 
REMARK   54  A    between atoms: N_135  and  CA_136 
REMARK   55  A    between atoms: CA_136  and  CB_139 
REMARK   56  A    between atoms: CA_136  and  C_137 
REMARK       I    between atoms: C_137  and  N_148 
REMARK   57  A    between atoms: CB_139  and  CG_140 
REMARK   58  A    between atoms: CG_140  and  CD_141 
REMARK   59  A    between atoms: CD_141  and  CE_142 
REMARK   60  A    between atoms: CE_142  and  NZ_143 
REMARK   61  A    between atoms: N_148  and  CA_149 
REMARK   62  A    between atoms: CA_149  and  CB_152 
REMARK   63  A    between atoms: CA_149  and  C_150 
REMARK       I    between atoms: C_150  and  N_157 
REMARK   64  A    between atoms: CB_152  and  CG_153 
REMARK   65  A    between atoms: N_157  and  CA_158 
REMARK   66  A    between atoms: CA_158  and  C_159 
REMARK   67  A    between atoms: CA_158  and  CB_161 
REMARK       I    between atoms: C_159  and  N_170 
REMARK   68  A    between atoms: CB_161  and  CG_162 
REMARK   69  A    between atoms: CG_162  and  CD_163 
REMARK   70  A    between atoms: CD_163  and  CE_164 
REMARK   71  A    between atoms: CE_164  and  NZ_165 
REMARK   72  A    between atoms: N_170  and  CA_171 
REMARK   73  A    between atoms: CA_171  and  CB_174 
REMARK   74  A    between atoms: CA_171  and  C_172 
REMARK       I    between atoms: C_172  and  N_183 
REMARK   75  A    between atoms: CB_174  and  CG_175 
REMARK   76  A    between atoms: CG_175  and  CD_176 
REMARK   77  A    between atoms: CD_176  and  CE_177 
REMARK   78  A    between atoms: CE_177  and  NZ_178 
REMARK   79  A    between atoms: N_183  and  CA_184 
REMARK   80  A    between atoms: CA_184  and  CB_187 
REMARK   81  A    between atoms: CA_184  and  C_185 
REMARK   82  A    between atoms: CB_187  and  CG_188 
ROOT
ATOM      1  N   LEU     1      27.183  24.852  32.327  1.00  0.00    -0.058 N 
ATOM      2  H1  LEU     1      27.182  25.760  31.919  1.00 99.99     0.276 HD
ATOM      3  H2  LEU     1      26.509  24.282  31.891  1.00 99.99     0.276 HD
ATOM      4  H3  LEU     1      26.887  24.925  33.272  1.00 99.99     0.276 HD
ENDROOT
BRANCH   1   5
ATOM      5  CA  LEU     1      28.553  24.273  32.243  1.00  0.00     0.255 C 
BRANCH   5   6
ATOM      6  CB  LEU     1      28.523  22.856  31.639  1.00  0.00     0.040 C 
BRANCH   6   7
ATOM      7  CG  LEU     1      29.813  22.039  31.855  1.00  0.00     0.002 C 
ATOM      8  CD2 LEU     1      29.684  20.671  31.181  1.00  0.00     0.000 C 
ATOM      9  CD1 LEU     1      30.131  21.838  33.342  1.00  0.00     0.000 C 
ENDBRANCH   6   7
ENDBRANCH   5   6
BRANCH   5  10
ATOM     10  C   LEU     1      29.500  25.262  31.534  1.00  0.00     0.259 C 
ATOM     11  N   ALA     2      29.479  25.306  30.191  1.00  0.00    -0.338 N 
ATOM     12  H   ALA     2      28.997  24.597  29.677  1.00 99.99     0.164 HD
ATOM     13  O   LEU     1      30.060  26.111  32.228  1.00  0.00    -0.271 OA
BRANCH  11  14
ATOM     14  CA  ALA     2      30.176  26.281  29.312  1.00  0.00     0.159 C 
ATOM     15  CB  ALA     2      29.174  26.836  28.289  1.00  0.00     0.034 C 
BRANCH  14  16
ATOM     16  C   ALA     2      30.994  27.403  29.982  1.00  0.00     0.251 C 
ATOM     17  N   LEU     3      30.320  28.436  30.506  1.00  0.00    -0.338 N 
ATOM     18  H   LEU     3      29.351  28.558  30.298  1.00 99.99     0.164 HD
ATOM     19  O   ALA     2      32.220  27.296  30.028  1.00  0.00    -0.271 OA
BRANCH  17  20
ATOM     20  CA  LEU     3      30.889  29.533  31.319  1.00  0.00     0.159 C 
BRANCH  20  21
ATOM     21  CB  LEU     3      29.776  30.154  32.183  1.00  0.00     0.032 C 
BRANCH  21  22
ATOM     22  CG  LEU     3      28.640  30.803  31.384  1.00  0.00     0.002 C 
ATOM     23  CD2 LEU     3      29.118  32.070  30.673  1.00  0.00     0.000 C 
ATOM     24  CD1 LEU     3      27.489  31.162  32.326  1.00  0.00     0.000 C 
ENDBRANCH  21  22
ENDBRANCH  20  21
BRANCH  20  25
ATOM     25  C   LEU     3      32.075  29.141  32.219  1.00  0.00     0.251 C 
ATOM     26  N   LYS     4      31.843  28.174  33.115  1.00  0.00    -0.338 N 
ATOM     27  H   LYS     4      30.965  27.692  33.132  1.00 99.99     0.164 HD
ATOM     28  O   LEU     3      33.185  29.625  31.999  1.00  0.00    -0.271 OA
BRANCH  26  29
ATOM     29  CA  LYS     4      32.839  27.653  34.073  1.00  0.00     0.159 C 
BRANCH  29  30
ATOM     30  CB  LYS     4      32.183  26.663  35.050  1.00  0.00     0.032 C 
BRANCH  30  31
ATOM     31  CG  LYS     4      31.182  27.295  36.024  1.00  0.00     0.004 C 
BRANCH  31  32
ATOM     32  CD  LYS     4      30.708  26.260  37.051  1.00  0.00     0.032 C 
BRANCH  32  33
ATOM     33  CE  LYS     4      29.803  26.887  38.116  1.00  0.00     0.206 C 
BRANCH  33  34
ATOM     34  NZ  LYS     4      29.445  25.925  39.172  1.00  0.00    -0.064 N 
ATOM     35  HZ3 LYS     4      30.274  25.594  39.623  1.00 99.99     0.275 HD
ATOM     36  HZ1 LYS     4      28.864  26.376  39.851  1.00 99.99     0.275 HD
ATOM     37  HZ2 LYS     4      28.950  25.150  38.778  1.00 99.99     0.275 HD
ENDBRANCH  33  34
ENDBRANCH  32  33
ENDBRANCH  31  32
ENDBRANCH  30  31
ENDBRANCH  29  30
BRANCH  29  38
ATOM     38  C   LYS     4      34.035  26.948  33.407  1.00  0.00     0.251 C 
ATOM     39  N   SER     5      33.737  26.156  32.376  1.00  0.00    -0.336 N 
ATOM     40  H   SER     5      32.792  26.024  32.088  1.00 99.99     0.164 HD
ATOM     41  O   LYS     4      35.174  27.098  33.847  1.00  0.00    -0.271 OA
BRANCH  39  42
ATOM     42  CA  SER     5      34.710  25.314  31.649  1.00  0.00     0.189 C 
BRANCH  42  43
ATOM     43  CB  SER     5      33.980  24.228  30.844  1.00  0.00     0.169 C 
BRANCH  43  44
ATOM     44  OG  SER     5      32.990  23.557  31.629  1.00  0.00    -0.380 OA
ATOM     45  HG  SER     5      32.614  22.798  31.098  1.00 99.99     0.211 HD
ENDBRANCH  43  44
ENDBRANCH  42  43
BRANCH  42  46
ATOM     46  C   SER     5      35.618  26.087  30.681  1.00  0.00     0.254 C 
ATOM     47  N   GLY     6      34.994  26.793  29.722  1.00  0.00    -0.336 N 
ATOM     48  H   GLY     6      34.022  27.074  29.783  1.00 99.99     0.164 HD
ATOM     49  O   SER     5      36.842  26.022  30.786  1.00  0.00    -0.270 OA
BRANCH  47  50
ATOM     50  CA  GLY     6      35.716  27.322  28.552  1.00  0.00     0.189 C 
BRANCH  50  51
ATOM     51  C   GLY     6      35.370  28.753  28.149  1.00  0.00     0.253 C 
ATOM     52  O   GLY     6      34.205  29.086  27.916  1.00  0.00    -0.270 OA
ATOM     53  N   GLY     7      36.435  29.570  28.097  1.00  0.00    -0.336 N 
ATOM     54  H   GLY     7      37.313  29.321  28.526  1.00 99.99     0.164 HD
BRANCH  53  55
ATOM     55  CA  GLY     7      36.453  30.903  27.467  1.00  0.00     0.189 C 
BRANCH  55  56
ATOM     56  C   GLY     7      35.623  32.016  28.119  1.00  0.00     0.253 C 
ATOM     57  N   TRP     8      34.306  31.880  27.994  1.00  0.00    -0.337 N 
ATOM     58  H   TRP     8      33.926  30.975  27.769  1.00 99.99     0.164 HD
ATOM     59  O   GLY     7      36.163  32.898  28.791  1.00  0.00    -0.270 OA
BRANCH  57  60
ATOM     60  CA  TRP     8      33.289  32.929  28.183  1.00  0.00     0.164 C 
BRANCH  60  61
ATOM     61  CB  TRP     8      31.896  32.289  28.233  1.00  0.00     0.059 C 
BRANCH  61  62
ATOM     62  CG  TRP     8      31.566  31.591  26.909  1.00  0.00    -0.016 A 
ATOM     63  CD2 TRP     8      31.187  32.215  25.730  1.00  0.00    -0.001 A 
ATOM     64  CE2 TRP     8      30.981  31.208  24.802  1.00  0.00     0.042 A 
ATOM     65  CE3 TRP     8      31.030  33.548  25.374  1.00  0.00     0.014 A 
ATOM     66  CZ2 TRP     8      30.601  31.533  23.504  1.00  0.00     0.030 A 
ATOM     67  NE1 TRP     8      31.231  30.051  25.411  1.00  0.00    -0.365 N 
ATOM     68  CH2 TRP     8      30.432  32.871  23.144  1.00  0.00     0.002 A 
ATOM     69  CZ3 TRP     8      30.659  33.875  24.080  1.00  0.00     0.001 A 
ATOM     70  HE1 TRP     8      31.170  29.146  24.985  1.00 99.99     0.165 HD
ATOM     71  CD1 TRP     8      31.581  30.283  26.675  1.00  0.00     0.097 A 
ENDBRANCH  61  62
ENDBRANCH  60  61
BRANCH  60  72
ATOM     72  C   TRP     8      33.473  33.953  29.312  1.00  0.00     0.251 C 
ATOM     73  N   LEU     9      33.696  33.506  30.554  1.00  0.00    -0.338 N 
ATOM     74  H   LEU     9      33.674  32.530  30.780  1.00 99.99     0.164 HD
ATOM     75  O   TRP     8      33.569  35.145  29.012  1.00  0.00    -0.271 OA
BRANCH  73  76
ATOM     76  CA  LEU     9      33.938  34.418  31.690  1.00  0.00     0.159 C 
BRANCH  76  77
ATOM     77  C   LEU     9      35.102  35.398  31.474  1.00  0.00     0.251 C 
ATOM     78  N   ARG    10      36.199  34.896  30.899  1.00  0.00    -0.338 N 
ATOM     79  H   ARG    10      36.255  33.934  30.619  1.00 99.99     0.164 HD
ATOM     80  O   LEU     9      34.895  36.609  31.570  1.00  0.00    -0.271 OA
BRANCH  78  81
ATOM     81  CA  ARG    10      37.377  35.711  30.547  1.00  0.00     0.159 C 
BRANCH  81  82
ATOM     82  CB  ARG    10      38.580  34.836  30.171  1.00  0.00     0.034 C 
BRANCH  82  83
ATOM     83  CG  ARG    10      39.089  34.037  31.374  1.00  0.00     0.027 C 
BRANCH  83  84
ATOM     84  CD  ARG    10      40.436  33.358  31.105  1.00  0.00     0.116 C 
BRANCH  84  85
ATOM     85  NE  ARG    10      40.341  32.359  30.024  1.00  0.00    -0.212 N 
ATOM     86  CZ  ARG    10      40.228  31.036  30.178  1.00  0.00     0.666 C 
ATOM     87  NH2 ARG    10      40.302  30.230  29.129  1.00  0.00    -0.235 N 
ATOM     88  NH1 ARG    10      40.121  30.479  31.378  1.00  0.00    -0.235 N 
ATOM     89 2HH2 ARG    10      40.470  30.600  28.216  1.00 99.99     0.174 HD
ATOM     90 1HH2 ARG    10      40.237  29.244  29.267  1.00 99.99     0.174 HD
ATOM     91 1HH1 ARG    10      40.042  29.492  31.483  1.00 99.99     0.174 HD
ATOM     92 2HH1 ARG    10      40.118  31.074  32.183  1.00 99.99     0.174 HD
ATOM     93  HE  ARG    10      40.380  32.735  29.101  1.00 99.99     0.178 HD
ENDBRANCH  84  85
ENDBRANCH  83  84
ENDBRANCH  82  83
ENDBRANCH  81  82
BRANCH  81  94
ATOM     94  C   ARG    10      37.107  36.726  29.427  1.00  0.00     0.251 C 
ATOM     95  N   LEU    11      36.328  36.317  28.422  1.00  0.00    -0.338 N 
ATOM     96  H   LEU    11      36.020  35.367  28.356  1.00 99.99     0.164 HD
ATOM     97  O   ARG    10      37.535  37.875  29.525  1.00  0.00    -0.271 OA
BRANCH  95  98
ATOM     98  CA  LEU    11      35.869  37.197  27.330  1.00  0.00     0.159 C 
BRANCH  98  99
ATOM     99  CB  LEU    11      35.144  36.376  26.252  1.00  0.00     0.032 C 
BRANCH  99 100
ATOM    100  CG  LEU    11      36.050  35.387  25.508  1.00  0.00     0.002 C 
ATOM    101  CD1 LEU    11      35.186  34.451  24.661  1.00  0.00     0.000 C 
ATOM    102  CD2 LEU    11      37.053  36.115  24.606  1.00  0.00     0.000 C 
ENDBRANCH  99 100
ENDBRANCH  98  99
BRANCH  98 103
ATOM    103  C   LEU    11      34.947  38.328  27.814  1.00  0.00     0.251 C 
ATOM    104  O   LEU    11      35.055  39.462  27.351  1.00  0.00    -0.271 OA
ATOM    105  N   PHE    12      34.032  37.993  28.726  1.00  0.00    -0.337 N 
ATOM    106  H   PHE    12      33.882  37.033  28.984  1.00 99.99     0.164 HD
BRANCH 105 107
ATOM    107  CA  PHE    12      33.099  38.957  29.338  1.00  0.00     0.164 C 
BRANCH 107 108
ATOM    108  CB  PHE    12      31.939  38.233  30.025  1.00  0.00     0.056 C 
BRANCH 108 109
ATOM    109  CG  PHE    12      31.072  37.314  29.139  1.00  0.00    -0.044 A 
ATOM    110  CD1 PHE    12      30.862  37.532  27.785  1.00  0.00     0.008 A 
ATOM    111  CE1 PHE    12      29.982  36.727  27.078  1.00  0.00     0.001 A 
ATOM    112  CZ  PHE    12      29.287  35.703  27.728  1.00  0.00     0.000 A 
ATOM    113  CE2 PHE    12      29.509  35.488  29.092  1.00  0.00     0.001 A 
ATOM    114  CD2 PHE    12      30.404  36.293  29.783  1.00  0.00     0.008 A 
ENDBRANCH 108 109
ENDBRANCH 107 108
BRANCH 107 115
ATOM    115  C   PHE    12      33.739  39.912  30.363  1.00  0.00     0.251 C 
ATOM    116  O   PHE    12      33.142  40.941  30.681  1.00  0.00    -0.271 OA
ATOM    117  N   GLY    13      34.775  39.424  31.064  1.00  0.00    -0.336 N 
ATOM    118  H   GLY    13      35.152  38.493  30.934  1.00 99.99     0.164 HD
BRANCH 117 119
ATOM    119  CA  GLY    13      35.454  40.196  32.124  1.00  0.00     0.189 C 
BRANCH 119 120
ATOM    120  C   GLY    13      35.045  39.770  33.546  1.00  0.00     0.253 C 
ATOM    121  N   LEU    14      33.895  39.103  33.639  1.00  0.00    -0.337 N 
ATOM    122  H   LEU    14      33.342  38.949  32.820  1.00 99.99     0.164 HD
ATOM    123  O   GLY    13      35.676  40.159  34.529  1.00  0.00    -0.270 OA
BRANCH 121 124
ATOM    124  CA  LEU    14      33.344  38.539  34.882  1.00  0.00     0.159 C 
BRANCH 124 125
ATOM    125  CB  LEU    14      31.986  37.879  34.600  1.00  0.00     0.032 C 
BRANCH 125 126
ATOM    126  CG  LEU    14      30.909  38.849  34.097  1.00  0.00     0.002 C 
ATOM    127  CD2 LEU    14      30.532  39.885  35.162  1.00  0.00     0.000 C 
ATOM    128  CD1 LEU    14      29.667  38.057  33.686  1.00  0.00     0.000 C 
ENDBRANCH 125 126
ENDBRANCH 124 125
BRANCH 124 129
ATOM    129  C   LEU    14      34.286  37.509  35.520  1.00  0.00     0.251 C 
ATOM    130  N   LYS    15      34.256  37.494  36.851  1.00  0.00    -0.338 N 
ATOM    131  H   LYS    15      33.638  38.088  37.364  1.00 99.99     0.164 HD
ATOM    132  O   LEU    14      34.986  36.761  34.839  1.00  0.00    -0.271 OA
BRANCH 130 133
ATOM    133  CA  LYS    15      35.100  36.621  37.681  1.00  0.00     0.159 C 
BRANCH 133 134
ATOM    134  CB  LYS    15      36.259  37.422  38.298  1.00  0.00     0.032 C 
BRANCH 134 135
ATOM    135  CG  LYS    15      37.225  37.936  37.226  1.00  0.00     0.004 C 
BRANCH 135 136
ATOM    136  CD  LYS    15      38.437  38.653  37.821  1.00  0.00     0.032 C 
BRANCH 136 137
ATOM    137  CE  LYS    15      39.354  39.123  36.691  1.00  0.00     0.206 C 
BRANCH 137 138
ATOM    138  NZ  LYS    15      40.612  39.683  37.207  1.00  0.00    -0.064 N 
ATOM    139  HZ3 LYS    15      41.098  38.982  37.727  1.00 99.99     0.275 HD
ATOM    140  HZ2 LYS    15      40.414  40.466  37.796  1.00 99.99     0.275 HD
ATOM    141  HZ1 LYS    15      41.177  39.979  36.437  1.00 99.99     0.275 HD
ENDBRANCH 137 138
ENDBRANCH 136 137
ENDBRANCH 135 136
ENDBRANCH 134 135
ENDBRANCH 133 134
BRANCH 133 142
ATOM    142  C   LYS    15      34.278  35.947  38.783  1.00  0.00     0.251 C 
ATOM    143  N   ASP    16      34.767  34.776  39.174  1.00  0.00    -0.337 N 
ATOM    144  H   ASP    16      35.548  34.402  38.671  1.00 99.99     0.164 HD
ATOM    145  O   LYS    15      33.324  36.511  39.321  1.00  0.00    -0.271 OA
BRANCH 143 146
ATOM    146  CA  ASP    16      34.231  33.881  40.226  1.00  0.00     0.170 C 
BRANCH 146 147
ATOM    147  CB  ASP    16      35.152  32.656  40.431  1.00  0.00     0.129 C 
BRANCH 147 148
ATOM    148  CG  ASP    16      36.412  32.653  39.555  1.00  0.00     0.188 C 
ATOM    149  OD1 ASP    16      36.270  32.255  38.379  1.00  0.00    -0.647 OA
ATOM    150  OD2 ASP    16      37.376  33.339  39.958  1.00  0.00    -0.647 OA
ENDBRANCH 147 148
ENDBRANCH 146 147
BRANCH 146 151
ATOM    151  C   ASP    16      33.925  34.530  41.590  1.00  0.00     0.251 C 
ATOM    152  O   ASP    16      33.138  33.990  42.367  1.00  0.00    -0.271 OA
ATOM    153  N   LYS    17      34.576  35.658  41.883  1.00  0.00    -0.338 N 
ATOM    154  H   LYS    17      35.348  35.968  41.331  1.00 99.99     0.164 HD
BRANCH 153 155
ATOM    155  CA  LYS    17      34.331  36.462  43.100  1.00  0.00     0.159 C 
BRANCH 155 156
ATOM    156  C   LYS    17      33.636  37.811  42.819  1.00  0.00     0.251 C 
ATOM    157  N   LYS    18      32.778  37.800  41.797  1.00  0.00    -0.338 N 
ATOM    158  H   LYS    18      32.754  36.994  41.210  1.00 99.99     0.164 HD
ATOM    159  O   LYS    17      33.943  38.845  43.417  1.00  0.00    -0.271 OA
BRANCH 157 160
ATOM    160  CA  LYS    18      31.942  38.933  41.328  1.00  0.00     0.159 C 
BRANCH 160 161
ATOM    161  CB  LYS    18      32.652  39.739  40.236  1.00  0.00     0.032 C 
BRANCH 161 162
ATOM    162  CG  LYS    18      33.699  40.712  40.769  1.00  0.00     0.004 C 
BRANCH 162 163
ATOM    163  CD  LYS    18      34.072  41.664  39.637  1.00  0.00     0.032 C 
BRANCH 163 164
ATOM    164  CE  LYS    18      35.008  42.765  40.121  1.00  0.00     0.206 C 
BRANCH 164 165
ATOM    165  NZ  LYS    18      35.123  43.791  39.074  1.00  0.00    -0.064 N 
ATOM    166  HZ2 LYS    18      35.475  43.374  38.237  1.00 99.99     0.275 HD
ATOM    167  HZ1 LYS    18      35.740  44.514  39.380  1.00 99.99     0.275 HD
ATOM    168  HZ3 LYS    18      34.217  44.176  38.897  1.00 99.99     0.275 HD
ENDBRANCH 164 165
ENDBRANCH 163 164
ENDBRANCH 162 163
ENDBRANCH 161 162
ENDBRANCH 160 161
BRANCH 160 169
ATOM    169  C   LYS    18      30.584  38.518  40.739  1.00  0.00     0.251 C 
ATOM    170  O   LYS    18      29.684  39.341  40.568  1.00  0.00    -0.271 OA
ATOM    171  N   HIS    19      30.566  37.302  40.194  1.00  0.00    -0.336 N 
ATOM    172  H   HIS    19      31.395  36.747  40.174  1.00 99.99     0.164 HD
BRANCH 171 173
ATOM    173  CA  HIS    19      29.405  36.634  39.588  1.00  0.00     0.174 C 
BRANCH 173 174
ATOM    174  CB  HIS    19      29.991  35.779  38.447  1.00  0.00     0.078 C 
BRANCH 174 175
ATOM    175  CG  HIS    19      28.979  34.947  37.649  1.00  0.00     0.057 A 
ATOM    176  CD2 HIS    19      28.178  34.015  38.158  1.00  0.00     0.113 A 
ATOM    177  NE2 HIS    19      27.195  33.787  37.297  1.00  0.00    -0.223 NA
ATOM    178  CE1 HIS    19      27.413  34.543  36.228  1.00  0.00     0.175 A 
ATOM    179  ND1 HIS    19      28.528  35.239  36.432  1.00  0.00    -0.338 N 
ATOM    180  HD1 HIS    19      28.993  35.804  35.749  1.00 99.99     0.167 HD
ENDBRANCH 174 175
ENDBRANCH 173 174
BRANCH 173 181
ATOM    181  C   HIS    19      28.724  35.759  40.662  1.00  0.00     0.207 C 
ATOM    182  OXT HIS    19      29.482  34.989  41.291  1.00 99.99    -0.646 OA
ATOM    183  O   HIS    19      27.488  35.869  40.819  1.00 99.99    -0.646 OA
ENDBRANCH 173 181
ENDBRANCH 171 173
ENDBRANCH 160 169
ENDBRANCH 157 160
ENDBRANCH 155 156
BRANCH 155 184
ATOM    184  CB  LYS    17      35.667  36.669  43.832  1.00  0.00     0.032 C 
BRANCH 184 185
ATOM    185  CG  LYS    17      36.275  35.361  44.343  1.00  0.00     0.004 C 
BRANCH 185 186
ATOM    186  CD  LYS    17      37.581  35.635  45.086  1.00  0.00     0.032 C 
BRANCH 186 187
ATOM    187  CE  LYS    17      38.222  34.324  45.541  1.00  0.00     0.206 C 
BRANCH 187 188
ATOM    188  NZ  LYS    17      39.437  34.587  46.323  1.00  0.00    -0.064 N 
ATOM    189  HZ1 LYS    17      39.845  33.720  46.605  1.00 99.99     0.275 HD
ATOM    190  HZ3 LYS    17      39.197  35.123  47.133  1.00 99.99     0.275 HD
ATOM    191  HZ2 LYS    17      40.089  35.101  45.766  1.00 99.99     0.275 HD
ENDBRANCH 187 188
ENDBRANCH 186 187
ENDBRANCH 185 186
ENDBRANCH 184 185
ENDBRANCH 155 184
ENDBRANCH 153 155
ENDBRANCH 146 151
ENDBRANCH 143 146
ENDBRANCH 133 142
ENDBRANCH 130 133
ENDBRANCH 124 129
ENDBRANCH 121 124
ENDBRANCH 119 120
ENDBRANCH 117 119
ENDBRANCH 107 115
ENDBRANCH 105 107
ENDBRANCH  98 103
ENDBRANCH  95  98
ENDBRANCH  81  94
ENDBRANCH  78  81
ENDBRANCH  76  77
BRANCH  76 192
ATOM    192  CB  LEU     9      34.140  33.640  33.001  1.00  0.00     0.032 C 
BRANCH 192 193
ATOM    193  CG  LEU     9      32.866  32.956  33.514  1.00  0.00     0.002 C 
ATOM    194  CD2 LEU     9      31.792  33.976  33.912  1.00  0.00     0.000 C 
ATOM    195  CD1 LEU     9      33.208  32.082  34.721  1.00  0.00     0.000 C 
ENDBRANCH 192 193
ENDBRANCH  76 192
ENDBRANCH  73  76
ENDBRANCH  60  72
ENDBRANCH  57  60
ENDBRANCH  55  56
ENDBRANCH  53  55
ENDBRANCH  50  51
ENDBRANCH  47  50
ENDBRANCH  42  46
ENDBRANCH  39  42
ENDBRANCH  29  38
ENDBRANCH  26  29
ENDBRANCH  20  25
ENDBRANCH  17  20
ENDBRANCH  14  16
ENDBRANCH  11  14
ENDBRANCH   5  10
ENDBRANCH   1   5
TORSDOF 82
