REMARK  27 active torsions:
REMARK  status: ('A' for Active; 'I' for Inactive)
REMARK    1  A    between atoms: N_1  and  CA_2 
REMARK    2  A    between atoms: CA_2  and  C_3 
REMARK       I    between atoms: C_3  and  N_8 
REMARK    3  A    between atoms: N_8  and  CA_9 
REMARK    4  A    between atoms: CA_9  and  C_10 
REMARK    5  A    between atoms: CA_9  and  CB_12 
REMARK       I    between atoms: C_10  and  N_16 
REMARK    6  A    between atoms: CB_12  and  OG_13 
REMARK    7  A    between atoms: N_16  and  CA_17 
REMARK    8  A    between atoms: CA_17  and  C_18 
REMARK    9  A    between atoms: CA_17  and  CB_20 
REMARK       I    between atoms: C_18  and  N_26 
REMARK   10  A    between atoms: CB_20  and  CG_21 
REMARK   11  A    between atoms: CG_21  and  CD_22 
REMARK   12  A    between atoms: N_26  and  CA_27 
REMARK   13  A    between atoms: CA_27  and  CB_30 
REMARK   14  A    between atoms: CA_27  and  C_28 
REMARK       I    between atoms: C_28  and  N_35 
REMARK   15  A    between atoms: CB_30  and  CG1_31 
REMARK   16  A    between atoms: N_35  and  CA_36 
REMARK   17  A    between atoms: CA_36  and  CB_39 
REMARK   18  A    between atoms: CA_36  and  C_37 
REMARK       I    between atoms: C_37  and  N_47 
REMARK   19  A    between atoms: CB_39  and  CG_40 
REMARK   20  A    between atoms: CG_40  and  CD_41 
REMARK       I    between atoms: CD_41  and  NE2_43 
REMARK   21  A    between atoms: CA_48  and  C_49 
REMARK       I    between atoms: C_49  and  N_54 
REMARK   22  A    between atoms: N_54  and  CA_55 
REMARK   23  A    between atoms: CA_55  and  CB_58 
REMARK   24  A    between atoms: CA_55  and  C_56 
REMARK   25  A    between atoms: CB_58  and  CG_59 
REMARK   26  A    between atoms: CG_59  and  CD_60 
REMARK   27  A    between atoms: CD_60  and  NE_61 
REMARK       I    between atoms: NE_61  and  CZ_62 
REMARK       I    between atoms: CZ_62  and  NH1_63 
ROOT
ATOM      1  N   GLY     1      26.495  31.267  22.695  1.00  0.00    -0.055 N 
ATOM      2  H1  GLY     1      25.890  30.801  23.342  1.00 99.99     0.276 HD
ATOM      3  H2  GLY     1      26.394  32.243  22.774  1.00 99.99     0.276 HD
ATOM      4  H3  GLY     1      26.210  31.042  21.779  1.00 99.99     0.276 HD
ENDROOT
BRANCH   1   5
ATOM      5  CA  GLY     1      27.876  30.815  22.938  1.00  0.00     0.292 C 
BRANCH   5   6
ATOM      6  C   GLY     1      27.870  29.843  24.131  1.00  0.00     0.261 C 
ATOM      7  N   SER     2      28.313  30.394  25.257  1.00  0.00    -0.335 N 
ATOM      8  H   SER     2      28.596  31.353  25.305  1.00 99.99     0.164 HD
ATOM      9  O   GLY     1      27.105  28.878  24.124  1.00  0.00    -0.270 OA
BRANCH   7  10
ATOM     10  CA  SER     2      28.372  29.722  26.572  1.00  0.00     0.189 C 
BRANCH  10  11
ATOM     11  C   SER     2      27.092  28.980  26.999  1.00  0.00     0.253 C 
ATOM     12  O   SER     2      27.124  27.755  27.059  1.00  0.00    -0.270 OA
ATOM     13  N   GLU     3      25.955  29.683  27.058  1.00  0.00    -0.337 N 
ATOM     14  H   GLU     3      25.981  30.676  26.955  1.00 99.99     0.164 HD
BRANCH  13  15
ATOM     15  CA  GLU     3      24.639  29.131  27.482  1.00  0.00     0.160 C 
BRANCH  15  16
ATOM     16  C   GLU     3      23.955  28.139  26.497  1.00  0.00     0.251 C 
ATOM     17  N   ILE     4      24.758  27.498  25.651  1.00  0.00    -0.338 N 
ATOM     18  H   ILE     4      25.710  27.791  25.558  1.00 99.99     0.164 HD
ATOM     19  O   GLU     3      22.730  28.059  26.416  1.00  0.00    -0.271 OA
BRANCH  17  20
ATOM     20  CA  ILE     4      24.377  26.370  24.763  1.00  0.00     0.159 C 
BRANCH  20  21
ATOM     21  CB  ILE     4      24.416  26.795  23.272  1.00  0.00     0.029 C 
ATOM     22  CG2 ILE     4      23.852  25.680  22.371  1.00  0.00     0.002 C 
BRANCH  21  23
ATOM     23  CG1 ILE     4      23.625  28.093  23.022  1.00  0.00     0.002 C 
ATOM     24  CD  ILE     4      23.900  28.748  21.660  1.00  0.00     0.000 C 
ENDBRANCH  21  23
ENDBRANCH  20  21
BRANCH  20  25
ATOM     25  C   ILE     4      25.316  25.158  24.998  1.00  0.00     0.251 C 
ATOM     26  O   ILE     4      24.997  24.024  24.643  1.00  0.00    -0.271 OA
ATOM     27  N   GLN     5      26.499  25.424  25.548  1.00  0.00    -0.338 N 
ATOM     28  H   GLN     5      26.670  26.273  26.054  1.00 99.99     0.164 HD
BRANCH  27  29
ATOM     29  CA  GLN     5      27.612  24.461  25.665  1.00  0.00     0.160 C 
BRANCH  29  30
ATOM     30  CB  GLN     5      28.861  25.117  25.055  1.00  0.00     0.042 C 
BRANCH  30  31
ATOM     31  CG  GLN     5      28.725  25.494  23.571  1.00  0.00     0.090 C 
BRANCH  31  32
ATOM     32  CD  GLN     5      28.567  24.281  22.646  1.00  0.00     0.227 C 
ATOM     33  NE2 GLN     5      27.359  24.016  22.198  1.00  0.00    -0.369 N 
ATOM     34 2HE2 GLN     5      26.565  24.540  22.493  1.00 99.99     0.159 HD
ATOM     35 1HE2 GLN     5      27.272  23.228  21.595  1.00 99.99     0.159 HD
ATOM     36  OE1 GLN     5      29.512  23.576  22.327  1.00  0.00    -0.273 OA
ENDBRANCH  31  32
ENDBRANCH  30  31
ENDBRANCH  29  30
BRANCH  29  37
ATOM     37  C   GLN     5      27.874  24.098  27.144  1.00  0.00     0.254 C 
ATOM     38  O   GLN     5      27.404  24.817  28.030  1.00  0.00    -0.270 OA
ATOM     39  N   PRO     6      28.542  22.963  27.423  1.00  0.00    -0.312 N 
ATOM     40  CD  PRO     6      28.756  21.828  26.502  1.00  0.00     0.105 C 
ATOM     41  CA  PRO     6      28.984  22.592  28.785  1.00  0.00     0.163 C 
ATOM     42  CG  PRO     6      29.198  20.674  27.406  1.00  0.00     0.027 C 
ATOM     43  CB  PRO     6      29.890  21.382  28.568  1.00  0.00     0.034 C 
BRANCH  41  44
ATOM     44  C   PRO     6      29.723  23.743  29.482  1.00  0.00     0.251 C 
ATOM     45  N   ARG     7      29.566  23.772  30.802  1.00  0.00    -0.336 N 
ATOM     46  H   ARG     7      29.274  22.964  31.311  1.00 99.99     0.164 HD
ATOM     47  O   PRO     6      30.431  24.527  28.854  1.00  0.00    -0.271 OA
BRANCH  45  48
ATOM     48  CA  ARG     7      29.913  24.945  31.633  1.00  0.00     0.168 C 
BRANCH  48  49
ATOM     49  CB  ARG     7      28.617  25.524  32.215  1.00  0.00     0.035 C 
BRANCH  49  50
ATOM     50  CG  ARG     7      27.800  26.344  31.207  1.00  0.00     0.027 C 
BRANCH  50  51
ATOM     51  CD  ARG     7      28.566  27.556  30.657  1.00  0.00     0.116 C 
BRANCH  51  52
ATOM     52  NE  ARG     7      29.151  28.357  31.754  1.00  0.00    -0.212 N 
ATOM     53  CZ  ARG     7      28.594  29.404  32.366  1.00  0.00     0.666 C 
ATOM     54  NH1 ARG     7      27.383  29.833  32.047  1.00  0.00    -0.235 N 
ATOM     55  NH2 ARG     7      29.261  30.058  33.306  1.00  0.00    -0.235 N 
ATOM     56 2HH1 ARG     7      26.871  29.346  31.342  1.00 99.99     0.174 HD
ATOM     57 1HH1 ARG     7      26.977  30.616  32.512  1.00 99.99     0.174 HD
ATOM     58 1HH2 ARG     7      28.834  30.840  33.754  1.00 99.99     0.174 HD
ATOM     59 2HH2 ARG     7      30.183  29.775  33.565  1.00 99.99     0.174 HD
ATOM     60  HE  ARG     7      30.033  28.030  32.086  1.00 99.99     0.178 HD
ENDBRANCH  51  52
ENDBRANCH  50  51
ENDBRANCH  49  50
ENDBRANCH  48  49
BRANCH  48  61
ATOM     61  C   ARG     7      30.898  24.672  32.778  1.00  0.00     0.206 C 
ATOM     62  O   ARG     7      31.870  25.447  32.909  1.00 99.99    -0.646 OA
ATOM     63  OXT ARG     7      30.632  23.694  33.508  1.00 99.99    -0.646 OA
ENDBRANCH  48  61
ENDBRANCH  45  48
ENDBRANCH  41  44
ENDBRANCH  29  37
ENDBRANCH  27  29
ENDBRANCH  20  25
ENDBRANCH  17  20
ENDBRANCH  15  16
BRANCH  15  64
ATOM     64  CB  GLU     3      23.654  30.266  27.841  1.00  0.00     0.043 C 
BRANCH  64  65
ATOM     65  CG  GLU     3      24.205  31.545  28.493  1.00  0.00     0.100 C 
BRANCH  65  66
ATOM     66  CD  GLU     3      25.183  31.320  29.650  1.00  0.00     0.185 C 
ATOM     67  OE2 GLU     3      26.333  31.782  29.490  1.00  0.00    -0.647 OA
ATOM     68  OE1 GLU     3      24.779  30.707  30.658  1.00  0.00    -0.647 OA
ENDBRANCH  65  66
ENDBRANCH  64  65
ENDBRANCH  15  64
ENDBRANCH  13  15
ENDBRANCH  10  11
BRANCH  10  69
ATOM     69  CB  SER     2      28.779  30.757  27.627  1.00  0.00     0.169 C 
BRANCH  69  70
ATOM     70  OG  SER     2      28.081  31.985  27.369  1.00  0.00    -0.380 OA
ATOM     71  HG  SER     2      28.245  32.615  28.136  1.00 99.99     0.211 HD
ENDBRANCH  69  70
ENDBRANCH  10  69
ENDBRANCH   7  10
ENDBRANCH   5   6
ENDBRANCH   1   5
TORSDOF 27
