REMARK WARNING: 32 MAX_TORS EXCEEDED!!!
REMARK  63 active torsions:
REMARK  status: ('A' for Active; 'I' for Inactive)
REMARK    1  A    between atoms: N_1  and  CA_2 
REMARK    2  A    between atoms: CA_2  and  C_3 
REMARK    3  A    between atoms: CA_2  and  CB_5 
REMARK       I    between atoms: C_3  and  N_15 
REMARK    4  A    between atoms: CB_5  and  CG_6 
REMARK    5  A    between atoms: N_15  and  CA_16 
REMARK    6  A    between atoms: CA_16  and  CB_19 
REMARK    7  A    between atoms: CA_16  and  C_17 
REMARK       I    between atoms: C_17  and  N_24 
REMARK    8  A    between atoms: CB_19  and  CG1_20 
REMARK    9  A    between atoms: N_24  and  CA_25 
REMARK   10  A    between atoms: CA_25  and  C_26 
REMARK   11  A    between atoms: CA_25  and  CB_28 
REMARK       I    between atoms: C_26  and  N_36 
REMARK   12  A    between atoms: CB_28  and  CG_29 
REMARK   13  A    between atoms: CA_37  and  C_38 
REMARK       I    between atoms: C_38  and  N_43 
REMARK   14  A    between atoms: N_43  and  CA_44 
REMARK   15  A    between atoms: CA_44  and  C_45 
REMARK   16  A    between atoms: CA_44  and  CB_47 
REMARK       I    between atoms: C_45  and  N_56 
REMARK   17  A    between atoms: CB_47  and  CG_48 
REMARK   18  A    between atoms: CG_48  and  CD_49 
REMARK   19  A    between atoms: CD_49  and  CE_50 
REMARK   20  A    between atoms: CE_50  and  NZ_51 
REMARK   21  A    between atoms: N_56  and  CA_57 
REMARK   22  A    between atoms: CA_57  and  CB_60 
REMARK   23  A    between atoms: CA_57  and  C_58 
REMARK       I    between atoms: C_58  and  N_69 
REMARK   24  A    between atoms: CB_60  and  CG_61 
REMARK   25  A    between atoms: CG_61  and  CD_62 
REMARK   26  A    between atoms: CD_62  and  CE_63 
REMARK   27  A    between atoms: CE_63  and  NZ_64 
REMARK   28  A    between atoms: N_69  and  CA_70 
REMARK   29  A    between atoms: CA_70  and  C_71 
REMARK   30  A    between atoms: CA_70  and  CB_73 
REMARK       I    between atoms: C_71  and  N_80 
REMARK   31  A    between atoms: CB_73  and  CG_74 
REMARK       I    between atoms: CG_74  and  ND2_76 
REMARK   32  A    between atoms: N_80  and  CA_81 
REMARK   33  A    between atoms: CA_81  and  C_82 
REMARK   34  A    between atoms: CA_81  and  CB_84 
REMARK       I    between atoms: C_82  and  N_89 
REMARK   35  A    between atoms: CB_84  and  CG1_85 
REMARK   36  A    between atoms: N_89  and  CA_90 
REMARK   37  A    between atoms: CA_90  and  C_91 
REMARK   38  A    between atoms: CA_90  and  CB_93 
REMARK       I    between atoms: C_91  and  N_98 
REMARK   39  A    between atoms: CB_93  and  CG1_94 
REMARK   40  A    between atoms: N_98  and  CA_99 
REMARK   41  A    between atoms: CA_99  and  CB_102 
REMARK   42  A    between atoms: CA_99  and  C_100 
REMARK       I    between atoms: C_100  and  N_109 
REMARK   43  A    between atoms: CB_102  and  CG_103 
REMARK       I    between atoms: CG_103  and  ND2_105 
REMARK   44  A    between atoms: N_109  and  CA_110 
REMARK   45  A    between atoms: CA_110  and  C_111 
REMARK   46  A    between atoms: CA_110  and  CB_113 
REMARK       I    between atoms: C_111  and  N_117 
REMARK   47  A    between atoms: CB_113  and  OG_114 
REMARK   48  A    between atoms: N_117  and  CA_118 
REMARK   49  A    between atoms: CA_118  and  C_119 
REMARK   50  A    between atoms: CA_118  and  CB_121 
REMARK       I    between atoms: C_119  and  N_126 
REMARK   51  A    between atoms: CB_121  and  CG_122 
REMARK   52  A    between atoms: N_126  and  CA_127 
REMARK   53  A    between atoms: CA_127  and  C_128 
REMARK   54  A    between atoms: CA_127  and  CB_130 
REMARK       I    between atoms: C_128  and  N_138 
REMARK   55  A    between atoms: CB_130  and  CG_131 
REMARK   56  A    between atoms: N_138  and  CA_139 
REMARK   57  A    between atoms: CA_139  and  C_140 
REMARK       I    between atoms: C_140  and  N_143 
REMARK   58  A    between atoms: N_143  and  CA_144 
REMARK   59  A    between atoms: CA_144  and  C_145 
REMARK   60  A    between atoms: CA_144  and  CB_147 
REMARK   61  A    between atoms: CB_147  and  CG_148 
REMARK   62  A    between atoms: CG_148  and  CD_149 
REMARK   63  A    between atoms: CD_149  and  NE_150 
REMARK       I    between atoms: NE_150  and  CZ_151 
REMARK       I    between atoms: CZ_151  and  NH1_152 
ROOT
ATOM      1  N   PHE     1      31.587  25.657  35.607  1.00  0.00    -0.057 N 
ATOM      2  H1  PHE     1      31.608  26.213  34.773  1.00 99.99     0.276 HD
ATOM      3  H2  PHE     1      32.508  25.370  35.824  1.00 99.99     0.276 HD
ATOM      4  H3  PHE     1      31.091  24.819  35.432  1.00 99.99     0.276 HD
ENDROOT
BRANCH   1   5
ATOM      5  CA  PHE     1      30.980  26.475  36.686  1.00  0.00     0.259 C 
BRANCH   5   6
ATOM      6  C   PHE     1      30.563  27.874  36.174  1.00  0.00     0.259 C 
ATOM      7  O   PHE     1      31.002  28.292  35.103  1.00  0.00    -0.271 OA
ATOM      8  N   ILE     2      29.698  28.574  36.911  1.00  0.00    -0.338 N 
ATOM      9  H   ILE     2      29.289  28.224  37.752  1.00 99.99     0.164 HD
BRANCH   8  10
ATOM     10  CA  ILE     2      29.288  29.947  36.544  1.00  0.00     0.159 C 
BRANCH  10  11
ATOM     11  CB  ILE     2      27.750  30.101  36.561  1.00  0.00     0.029 C 
ATOM     12  CG2 ILE     2      27.343  31.544  36.207  1.00  0.00     0.002 C 
BRANCH  11  13
ATOM     13  CG1 ILE     2      27.100  29.101  35.585  1.00  0.00     0.002 C 
ATOM     14  CD  ILE     2      25.575  28.969  35.708  1.00  0.00     0.000 C 
ENDBRANCH  11  13
ENDBRANCH  10  11
BRANCH  10  15
ATOM     15  C   ILE     2      30.002  30.935  37.483  1.00  0.00     0.251 C 
ATOM     16  O   ILE     2      29.761  30.932  38.689  1.00  0.00    -0.271 OA
ATOM     17  N   PHE     3      30.951  31.674  36.909  1.00  0.00    -0.337 N 
ATOM     18  H   PHE     3      31.154  31.600  35.933  1.00 99.99     0.164 HD
BRANCH  17  19
ATOM     19  CA  PHE     3      31.795  32.628  37.657  1.00  0.00     0.164 C 
BRANCH  19  20
ATOM     20  C   PHE     3      31.614  34.100  37.229  1.00  0.00     0.254 C 
ATOM     21  O   PHE     3      31.735  34.389  36.036  1.00  0.00    -0.270 OA
ATOM     22  N   PRO     4      31.569  35.021  38.212  1.00  0.00    -0.312 N 
ATOM     23  CD  PRO     4      32.105  34.820  39.578  1.00  0.00     0.105 C 
ATOM     24  CA  PRO     4      31.187  36.444  38.063  1.00  0.00     0.163 C 
ATOM     25  CG  PRO     4      31.986  36.176  40.278  1.00  0.00     0.027 C 
ATOM     26  CB  PRO     4      32.025  37.168  39.120  1.00  0.00     0.034 C 
BRANCH  24  27
ATOM     27  C   PRO     4      31.189  37.127  36.682  1.00  0.00     0.251 C 
ATOM     28  O   PRO     4      30.139  37.212  36.051  1.00  0.00    -0.271 OA
ATOM     29  N   LYS     5      32.333  37.665  36.252  1.00  0.00    -0.338 N 
ATOM     30  H   LYS     5      33.196  37.491  36.719  1.00 99.99     0.164 HD
BRANCH  29  31
ATOM     31  CA  LYS     5      32.433  38.516  35.043  1.00  0.00     0.159 C 
BRANCH  31  32
ATOM     32  C   LYS     5      32.082  37.789  33.732  1.00  0.00     0.251 C 
ATOM     33  N   LYS     6      31.382  38.528  32.864  1.00  0.00    -0.338 N 
ATOM     34  H   LYS     6      31.033  39.424  33.136  1.00 99.99     0.164 HD
ATOM     35  O   LYS     5      32.648  36.735  33.441  1.00  0.00    -0.271 OA
BRANCH  33  36
ATOM     36  CA  LYS     6      30.909  38.086  31.528  1.00  0.00     0.159 C 
BRANCH  36  37
ATOM     37  CB  LYS     6      30.404  39.332  30.777  1.00  0.00     0.032 C 
BRANCH  37  38
ATOM     38  CG  LYS     6      29.796  39.044  29.399  1.00  0.00     0.004 C 
BRANCH  38  39
ATOM     39  CD  LYS     6      29.392  40.336  28.681  1.00  0.00     0.032 C 
BRANCH  39  40
ATOM     40  CE  LYS     6      28.832  40.037  27.287  1.00  0.00     0.206 C 
BRANCH  40  41
ATOM     41  NZ  LYS     6      28.426  41.263  26.581  1.00  0.00    -0.064 N 
ATOM     42  HZ2 LYS     6      27.712  41.732  27.102  1.00 99.99     0.275 HD
ATOM     43  HZ1 LYS     6      28.068  41.025  25.678  1.00 99.99     0.275 HD
ATOM     44  HZ3 LYS     6      29.213  41.871  26.473  1.00 99.99     0.275 HD
ENDBRANCH  40  41
ENDBRANCH  39  40
ENDBRANCH  38  39
ENDBRANCH  37  38
ENDBRANCH  36  37
BRANCH  36  45
ATOM     45  C   LYS     6      31.986  37.345  30.707  1.00  0.00     0.251 C 
ATOM     46  O   LYS     6      31.809  36.195  30.309  1.00  0.00    -0.271 OA
ATOM     47  N   ASN     7      33.156  37.973  30.624  1.00  0.00    -0.337 N 
ATOM     48  H   ASN     7      33.236  38.935  30.885  1.00 99.99     0.164 HD
BRANCH  47  49
ATOM     49  CA  ASN     7      34.338  37.454  29.907  1.00  0.00     0.169 C 
BRANCH  49  50
ATOM     50  C   ASN     7      34.792  36.081  30.441  1.00  0.00     0.251 C 
ATOM     51  O   ASN     7      34.766  35.101  29.699  1.00  0.00    -0.271 OA
ATOM     52  N   ILE     8      34.904  35.979  31.767  1.00  0.00    -0.338 N 
ATOM     53  H   ILE     8      34.566  36.700  32.370  1.00 99.99     0.164 HD
BRANCH  52  54
ATOM     54  CA  ILE     8      35.372  34.763  32.473  1.00  0.00     0.159 C 
BRANCH  54  55
ATOM     55  C   ILE     8      34.413  33.571  32.257  1.00  0.00     0.251 C 
ATOM     56  O   ILE     8      34.859  32.531  31.774  1.00  0.00    -0.271 OA
ATOM     57  N   ILE     9      33.116  33.765  32.506  1.00  0.00    -0.338 N 
ATOM     58  H   ILE     9      32.762  34.615  32.903  1.00 99.99     0.164 HD
BRANCH  57  59
ATOM     59  CA  ILE     9      32.097  32.718  32.251  1.00  0.00     0.159 C 
BRANCH  59  60
ATOM     60  C   ILE     9      32.033  32.265  30.776  1.00  0.00     0.251 C 
ATOM     61  O   ILE     9      31.901  31.072  30.509  1.00  0.00    -0.271 OA
ATOM     62  N   ASN    10      32.290  33.180  29.846  1.00  0.00    -0.337 N 
ATOM     63  H   ASN    10      32.419  34.151  30.057  1.00 99.99     0.164 HD
BRANCH  62  64
ATOM     64  CA  ASN    10      32.376  32.815  28.419  1.00  0.00     0.169 C 
BRANCH  64  65
ATOM     65  CB  ASN    10      32.234  34.053  27.530  1.00  0.00     0.119 C 
BRANCH  65  66
ATOM     66  CG  ASN    10      30.787  34.571  27.504  1.00  0.00     0.230 C 
ATOM     67  ND2 ASN    10      30.574  35.652  26.792  1.00  0.00    -0.369 N 
ATOM     68 1HD2 ASN    10      29.637  35.992  26.770  1.00 99.99     0.159 HD
ATOM     69 2HD2 ASN    10      31.313  36.087  26.291  1.00 99.99     0.159 HD
ATOM     70  OD1 ASN    10      29.848  33.994  28.034  1.00  0.00    -0.273 OA
ENDBRANCH  65  66
ENDBRANCH  64  65
BRANCH  64  71
ATOM     71  C   ASN    10      33.617  31.966  28.095  1.00  0.00     0.251 C 
ATOM     72  O   ASN    10      33.466  30.823  27.663  1.00  0.00    -0.271 OA
ATOM     73  N   SER    11      34.783  32.420  28.560  1.00  0.00    -0.336 N 
ATOM     74  H   SER    11      34.873  33.336  28.963  1.00 99.99     0.164 HD
BRANCH  73  75
ATOM     75  CA  SER    11      36.070  31.698  28.412  1.00  0.00     0.189 C 
BRANCH  75  76
ATOM     76  C   SER    11      36.072  30.301  29.057  1.00  0.00     0.253 C 
ATOM     77  N   LEU    12      35.436  30.189  30.224  1.00  0.00    -0.337 N 
ATOM     78  H   LEU    12      35.090  30.997  30.709  1.00 99.99     0.164 HD
ATOM     79  O   SER    11      36.663  29.373  28.513  1.00  0.00    -0.270 OA
BRANCH  77  80
ATOM     80  CA  LEU    12      35.278  28.920  30.968  1.00  0.00     0.159 C 
BRANCH  80  81
ATOM     81  C   LEU    12      34.246  27.914  30.433  1.00  0.00     0.251 C 
ATOM     82  O   LEU    12      34.168  26.797  30.943  1.00  0.00    -0.271 OA
ATOM     83  N   PHE    13      33.365  28.380  29.551  1.00  0.00    -0.337 N 
ATOM     84  H   PHE    13      33.317  29.349  29.312  1.00 99.99     0.164 HD
BRANCH  83  85
ATOM     85  CA  PHE    13      32.301  27.534  28.980  1.00  0.00     0.164 C 
BRANCH  85  86
ATOM     86  C   PHE    13      32.513  27.193  27.492  1.00  0.00     0.251 C 
ATOM     87  O   PHE    13      32.449  26.020  27.129  1.00  0.00    -0.271 OA
ATOM     88  N   GLY    14      32.892  28.200  26.689  1.00  0.00    -0.336 N 
ATOM     89  H   GLY    14      33.165  29.111  27.027  1.00 99.99     0.164 HD
BRANCH  88  90
ATOM     90  CA  GLY    14      32.987  28.050  25.222  1.00  0.00     0.189 C 
BRANCH  90  91
ATOM     91  C   GLY    14      31.654  28.437  24.566  1.00  0.00     0.253 C 
ATOM     92  N   ARG    15      31.647  29.624  23.967  1.00  0.00    -0.336 N 
ATOM     93  H   ARG    15      32.493  30.134  23.820  1.00 99.99     0.164 HD
ATOM     94  O   GLY    14      30.670  27.706  24.630  1.00  0.00    -0.270 OA
BRANCH  92  95
ATOM     95  CA  ARG    15      30.431  30.231  23.373  1.00  0.00     0.168 C 
BRANCH  95  96
ATOM     96  C   ARG    15      30.607  30.448  21.862  1.00  0.00     0.206 C 
ATOM     97  O   ARG    15      29.708  30.048  21.092  1.00 99.99    -0.646 OA
ATOM     98  OXT ARG    15      31.664  31.029  21.528  1.00 99.99    -0.646 OA
ENDBRANCH  95  96
BRANCH  95  99
ATOM     99  CB  ARG    15      30.168  31.611  23.989  1.00  0.00     0.035 C 
BRANCH  99 100
ATOM    100  CG  ARG    15      30.029  31.635  25.512  1.00  0.00     0.027 C 
BRANCH 100 101
ATOM    101  CD  ARG    15      28.734  31.002  26.010  1.00  0.00     0.116 C 
BRANCH 101 102
ATOM    102  NE  ARG    15      28.720  31.179  27.470  1.00  0.00    -0.212 N 
ATOM    103  CZ  ARG    15      27.911  30.579  28.342  1.00  0.00     0.666 C 
ATOM    104  NH2 ARG    15      28.183  30.659  29.635  1.00  0.00    -0.235 N 
ATOM    105  NH1 ARG    15      26.947  29.755  27.956  1.00  0.00    -0.235 N 
ATOM    106 1HH2 ARG    15      27.588  30.203  30.293  1.00 99.99     0.174 HD
ATOM    107 2HH2 ARG    15      29.005  31.134  29.942  1.00 99.99     0.174 HD
ATOM    108 2HH1 ARG    15      26.849  29.554  26.984  1.00 99.99     0.174 HD
ATOM    109 1HH1 ARG    15      26.364  29.306  28.629  1.00 99.99     0.174 HD
ATOM    110  HE  ARG    15      29.352  31.874  27.814  1.00 99.99     0.178 HD
ENDBRANCH 101 102
ENDBRANCH 100 101
ENDBRANCH  99 100
ENDBRANCH  95  99
ENDBRANCH  92  95
ENDBRANCH  90  91
ENDBRANCH  88  90
ENDBRANCH  85  86
BRANCH  85 111
ATOM    111  CB  PHE    13      30.958  28.235  29.228  1.00  0.00     0.056 C 
BRANCH 111 112
ATOM    112  CG  PHE    13      29.747  27.440  28.738  1.00  0.00    -0.044 A 
ATOM    113  CD2 PHE    13      29.304  27.627  27.437  1.00  0.00     0.008 A 
ATOM    114  CE2 PHE    13      28.195  26.940  26.966  1.00  0.00     0.001 A 
ATOM    115  CZ  PHE    13      27.524  26.056  27.801  1.00  0.00     0.000 A 
ATOM    116  CE1 PHE    13      27.967  25.862  29.105  1.00  0.00     0.001 A 
ATOM    117  CD1 PHE    13      29.074  26.559  29.579  1.00  0.00     0.008 A 
ENDBRANCH 111 112
ENDBRANCH  85 111
ENDBRANCH  83  85
ENDBRANCH  80  81
BRANCH  80 118
ATOM    118  CB  LEU    12      34.957  29.206  32.435  1.00  0.00     0.032 C 
BRANCH 118 119
ATOM    119  CG  LEU    12      36.162  29.701  33.236  1.00  0.00     0.002 C 
ATOM    120  CD2 LEU    12      37.234  28.617  33.397  1.00  0.00     0.000 C 
ATOM    121  CD1 LEU    12      35.658  30.109  34.613  1.00  0.00     0.000 C 
ENDBRANCH 118 119
ENDBRANCH  80 118
ENDBRANCH  77  80
ENDBRANCH  75  76
BRANCH  75 122
ATOM    122  CB  SER    11      37.220  32.502  29.029  1.00  0.00     0.169 C 
BRANCH 122 123
ATOM    123  OG  SER    11      37.302  33.805  28.444  1.00  0.00    -0.380 OA
ATOM    124  HG  SER    11      38.078  34.292  28.843  1.00 99.99     0.211 HD
ENDBRANCH 122 123
ENDBRANCH  75 122
ENDBRANCH  73  75
ENDBRANCH  64  71
ENDBRANCH  62  64
ENDBRANCH  59  60
BRANCH  59 125
ATOM    125  CB  ILE     9      30.717  33.058  32.873  1.00  0.00     0.029 C 
ATOM    126  CG2 ILE     9      30.208  34.450  32.485  1.00  0.00     0.002 C 
BRANCH 125 127
ATOM    127  CG1 ILE     9      29.618  32.024  32.569  1.00  0.00     0.002 C 
ATOM    128  CD  ILE     9      29.932  30.598  33.035  1.00  0.00     0.000 C 
ENDBRANCH 125 127
ENDBRANCH  59 125
ENDBRANCH  57  59
ENDBRANCH  54  55
BRANCH  54 129
ATOM    129  CB  ILE     8      35.644  35.069  33.964  1.00  0.00     0.029 C 
ATOM    130  CG2 ILE     8      36.091  33.807  34.723  1.00  0.00     0.002 C 
BRANCH 129 131
ATOM    131  CG1 ILE     8      36.714  36.172  34.089  1.00  0.00     0.002 C 
ATOM    132  CD  ILE     8      36.905  36.741  35.502  1.00  0.00     0.000 C 
ENDBRANCH 129 131
ENDBRANCH  54 129
ENDBRANCH  52  54
ENDBRANCH  49  50
BRANCH  49 133
ATOM    133  CB  ASN     7      35.471  38.489  30.012  1.00  0.00     0.119 C 
BRANCH 133 134
ATOM    134  CG  ASN     7      35.120  39.889  29.474  1.00  0.00     0.230 C 
ATOM    135  ND2 ASN     7      36.114  40.596  28.992  1.00  0.00    -0.369 N 
ATOM    136 1HD2 ASN     7      35.888  41.502  28.641  1.00 99.99     0.159 HD
ATOM    137 2HD2 ASN     7      37.047  40.248  28.990  1.00 99.99     0.159 HD
ATOM    138  OD1 ASN     7      34.018  40.407  29.601  1.00  0.00    -0.273 OA
ENDBRANCH 133 134
ENDBRANCH  49 133
ENDBRANCH  47  49
ENDBRANCH  36  45
ENDBRANCH  33  36
ENDBRANCH  31  32
BRANCH  31 139
ATOM    139  CB  LYS     5      33.837  39.127  34.936  1.00  0.00     0.032 C 
BRANCH 139 140
ATOM    140  CG  LYS     5      34.144  40.121  36.062  1.00  0.00     0.004 C 
BRANCH 140 141
ATOM    141  CD  LYS     5      35.536  40.737  35.896  1.00  0.00     0.032 C 
BRANCH 141 142
ATOM    142  CE  LYS     5      35.821  41.754  37.004  1.00  0.00     0.206 C 
BRANCH 142 143
ATOM    143  NZ  LYS     5      37.143  42.381  36.846  1.00  0.00    -0.064 N 
ATOM    144  HZ3 LYS     5      37.190  42.860  35.969  1.00 99.99     0.275 HD
ATOM    145  HZ1 LYS     5      37.288  43.039  37.586  1.00 99.99     0.275 HD
ATOM    146  HZ2 LYS     5      37.858  41.683  36.885  1.00 99.99     0.275 HD
ENDBRANCH 142 143
ENDBRANCH 141 142
ENDBRANCH 140 141
ENDBRANCH 139 140
ENDBRANCH  31 139
ENDBRANCH  29  31
ENDBRANCH  24  27
ENDBRANCH  19  20
BRANCH  19 147
ATOM    147  CB  PHE     3      33.274  32.230  37.538  1.00  0.00     0.056 C 
BRANCH 147 148
ATOM    148  CG  PHE     3      33.701  30.930  38.230  1.00  0.00    -0.044 A 
ATOM    149  CD2 PHE     3      34.956  30.439  37.903  1.00  0.00     0.008 A 
ATOM    150  CE2 PHE     3      35.473  29.317  38.533  1.00  0.00     0.001 A 
ATOM    151  CZ  PHE     3      34.735  28.678  39.518  1.00  0.00     0.000 A 
ATOM    152  CE1 PHE     3      33.479  29.162  39.858  1.00  0.00     0.001 A 
ATOM    153  CD1 PHE     3      32.963  30.286  39.224  1.00  0.00     0.008 A 
ENDBRANCH 147 148
ENDBRANCH  19 147
ENDBRANCH  17  19
ENDBRANCH  10  15
ENDBRANCH   8  10
ENDBRANCH   5   6
BRANCH   5 154
ATOM    154  CB  PHE     1      31.960  26.658  37.856  1.00  0.00     0.064 C 
BRANCH 154 155
ATOM    155  CG  PHE     1      32.270  25.358  38.599  1.00  0.00    -0.044 A 
ATOM    156  CD2 PHE     1      31.398  24.883  39.573  1.00  0.00     0.008 A 
ATOM    157  CE2 PHE     1      31.619  23.643  40.159  1.00  0.00     0.001 A 
ATOM    158  CZ  PHE     1      32.715  22.879  39.775  1.00  0.00     0.000 A 
ATOM    159  CE1 PHE     1      33.596  23.362  38.816  1.00  0.00     0.001 A 
ATOM    160  CD1 PHE     1      33.382  24.605  38.235  1.00  0.00     0.008 A 
ENDBRANCH 154 155
ENDBRANCH   5 154
ENDBRANCH   1   5
TORSDOF 63
