REMARK WARNING: 32 MAX_TORS EXCEEDED!!!
REMARK  37 active torsions:
REMARK  status: ('A' for Active; 'I' for Inactive)
REMARK    1  A    between atoms: N_1  and  CA_2 
REMARK    2  A    between atoms: CA_2  and  C_3 
REMARK    3  A    between atoms: CA_2  and  CB_5 
REMARK       I    between atoms: C_3  and  N_16 
REMARK    4  A    between atoms: CB_5  and  CG_6 
REMARK    5  A    between atoms: CG_6  and  CD_7 
REMARK    6  A    between atoms: CD_7  and  CE_8 
REMARK    7  A    between atoms: CE_8  and  NZ_9 
REMARK    8  A    between atoms: N_16  and  CA_17 
REMARK    9  A    between atoms: CA_17  and  CB_20 
REMARK   10  A    between atoms: CA_17  and  C_18 
REMARK       I    between atoms: C_18  and  N_32 
REMARK   11  A    between atoms: CB_20  and  CG_21 
REMARK   12  A    between atoms: N_32  and  CA_33 
REMARK   13  A    between atoms: CA_33  and  C_34 
REMARK   14  A    between atoms: CA_33  and  CB_36 
REMARK       I    between atoms: C_34  and  N_41 
REMARK   15  A    between atoms: CB_36  and  CG_37 
REMARK   16  A    between atoms: N_41  and  CA_42 
REMARK   17  A    between atoms: CA_42  and  C_43 
REMARK   18  A    between atoms: CA_42  and  CB_45 
REMARK       I    between atoms: C_43  and  N_54 
REMARK   19  A    between atoms: CB_45  and  CG_46 
REMARK   20  A    between atoms: CG_46  and  CD_47 
REMARK   21  A    between atoms: CD_47  and  CE_48 
REMARK   22  A    between atoms: CE_48  and  NZ_49 
REMARK   23  A    between atoms: N_54  and  CA_55 
REMARK   24  A    between atoms: CA_55  and  CB_58 
REMARK   25  A    between atoms: CA_55  and  C_56 
REMARK       I    between atoms: C_56  and  N_67 
REMARK   26  A    between atoms: CB_58  and  CG_59 
REMARK   27  A    between atoms: CG_59  and  CD_60 
REMARK   28  A    between atoms: CD_60  and  CE_61 
REMARK   29  A    between atoms: CE_61  and  NZ_62 
REMARK   30  A    between atoms: N_67  and  CA_68 
REMARK   31  A    between atoms: CA_68  and  C_69 
REMARK   32  A    between atoms: CA_68  and  CB_71 
REMARK       I    between atoms: C_69  and  N_83 
REMARK   33  A    between atoms: CB_71  and  CG_72 
REMARK   34  A    between atoms: N_83  and  CA_84 
REMARK   35  A    between atoms: CA_84  and  C_85 
REMARK   36  A    between atoms: CA_84  and  CB_87 
REMARK   37  A    between atoms: CB_87  and  CG_88 
ROOT
ATOM      1  N   LYS     1      26.672  34.052  33.210  1.00  0.00    -0.058 N 
ATOM      2  H1  LYS     1      27.597  33.681  33.302  1.00 99.99     0.276 HD
ATOM      3  H2  LYS     1      26.705  35.032  33.289  1.00 99.99     0.276 HD
ATOM      4  H3  LYS     1      26.140  33.749  33.996  1.00 99.99     0.276 HD
ENDROOT
BRANCH   1   5
ATOM      5  CA  LYS     1      26.080  33.583  31.935  1.00  0.00     0.255 C 
BRANCH   5   6
ATOM      6  C   LYS     1      27.102  32.701  31.179  1.00  0.00     0.259 C 
ATOM      7  N   TRP     2      28.164  33.319  30.639  1.00  0.00    -0.337 N 
ATOM      8  H   TRP     2      28.241  34.315  30.656  1.00 99.99     0.164 HD
ATOM      9  O   LYS     1      27.072  31.495  31.406  1.00  0.00    -0.271 OA
BRANCH   7  10
ATOM     10  CA  TRP     2      29.271  32.661  29.900  1.00  0.00     0.164 C 
BRANCH  10  11
ATOM     11  CB  TRP     2      30.514  33.564  29.950  1.00  0.00     0.059 C 
BRANCH  11  12
ATOM     12  CG  TRP     2      31.620  33.088  29.006  1.00  0.00    -0.016 A 
ATOM     13  CD2 TRP     2      32.739  32.339  29.345  1.00  0.00    -0.001 A 
ATOM     14  CE2 TRP     2      33.353  31.996  28.150  1.00  0.00     0.042 A 
ATOM     15  CE3 TRP     2      33.293  31.943  30.556  1.00  0.00     0.014 A 
ATOM     16  CZ2 TRP     2      34.516  31.239  28.160  1.00  0.00     0.030 A 
ATOM     17  NE1 TRP     2      32.641  32.529  27.162  1.00  0.00    -0.365 N 
ATOM     18  CH2 TRP     2      35.066  30.829  29.368  1.00  0.00     0.002 A 
ATOM     19  CZ3 TRP     2      34.457  31.187  30.566  1.00  0.00     0.001 A 
ATOM     20  HE1 TRP     2      32.849  32.448  26.187  1.00 99.99     0.165 HD
ATOM     21  CD1 TRP     2      31.602  33.188  27.677  1.00  0.00     0.097 A 
ENDBRANCH  11  12
ENDBRANCH  10  11
BRANCH  10  22
ATOM     22  C   TRP     2      29.582  31.212  30.336  1.00  0.00     0.251 C 
ATOM     23  O   TRP     2      29.264  30.282  29.599  1.00  0.00    -0.271 OA
ATOM     24  N   LEU     3      30.128  31.046  31.546  1.00  0.00    -0.338 N 
ATOM     25  H   LEU     3      30.579  31.808  32.003  1.00 99.99     0.164 HD
BRANCH  24  26
ATOM     26  CA  LEU     3      30.310  29.745  32.234  1.00  0.00     0.159 C 
BRANCH  26  27
ATOM     27  C   LEU     3      29.296  28.648  31.850  1.00  0.00     0.251 C 
ATOM     28  N   LYS     4      28.020  28.885  32.164  1.00  0.00    -0.338 N 
ATOM     29  H   LYS     4      27.755  29.762  32.561  1.00 99.99     0.164 HD
ATOM     30  O   LEU     3      29.655  27.802  31.037  1.00  0.00    -0.271 OA
BRANCH  28  31
ATOM     31  CA  LYS     4      26.855  28.003  31.892  1.00  0.00     0.159 C 
BRANCH  31  32
ATOM     32  C   LYS     4      26.444  27.799  30.409  1.00  0.00     0.251 C 
ATOM     33  N   LYS     5      27.337  28.164  29.495  1.00  0.00    -0.338 N 
ATOM     34  H   LYS     5      28.106  28.750  29.753  1.00 99.99     0.164 HD
ATOM     35  O   LYS     4      25.303  27.454  30.107  1.00  0.00    -0.271 OA
BRANCH  33  36
ATOM     36  CA  LYS     5      27.233  27.917  28.039  1.00  0.00     0.159 C 
BRANCH  36  37
ATOM     37  CB  LYS     5      26.987  29.265  27.349  1.00  0.00     0.032 C 
BRANCH  37  38
ATOM     38  CG  LYS     5      26.500  29.077  25.911  1.00  0.00     0.004 C 
BRANCH  38  39
ATOM     39  CD  LYS     5      26.826  30.280  25.027  1.00  0.00     0.032 C 
BRANCH  39  40
ATOM     40  CE  LYS     5      26.675  29.866  23.562  1.00  0.00     0.206 C 
BRANCH  40  41
ATOM     41  NZ  LYS     5      27.037  30.950  22.640  1.00  0.00    -0.064 N 
ATOM     42  HZ2 LYS     5      26.422  31.725  22.784  1.00 99.99     0.275 HD
ATOM     43  HZ3 LYS     5      27.983  31.231  22.806  1.00 99.99     0.275 HD
ATOM     44  HZ1 LYS     5      26.947  30.621  21.700  1.00 99.99     0.275 HD
ENDBRANCH  40  41
ENDBRANCH  39  40
ENDBRANCH  38  39
ENDBRANCH  37  38
ENDBRANCH  36  37
BRANCH  36  45
ATOM     45  C   LYS     5      28.508  27.237  27.470  1.00  0.00     0.251 C 
ATOM     46  N   TRP     6      29.548  27.176  28.298  1.00  0.00    -0.337 N 
ATOM     47  H   TRP     6      29.475  27.537  29.228  1.00 99.99     0.164 HD
ATOM     48  O   LYS     5      28.566  26.854  26.304  1.00  0.00    -0.271 OA
BRANCH  46  49
ATOM     49  CA  TRP     6      30.884  26.637  27.972  1.00  0.00     0.164 C 
BRANCH  49  50
ATOM     50  C   TRP     6      31.260  25.431  28.865  1.00  0.00     0.251 C 
ATOM     51  O   TRP     6      31.952  24.510  28.438  1.00  0.00    -0.271 OA
ATOM     52  N   LEU     7      30.841  25.509  30.127  1.00  0.00    -0.336 N 
ATOM     53  H   LEU     7      30.411  26.352  30.462  1.00 99.99     0.164 HD
BRANCH  52  54
ATOM     54  CA  LEU     7      30.895  24.439  31.150  1.00  0.00     0.168 C 
BRANCH  54  55
ATOM     55  C   LEU     7      29.505  24.320  31.803  1.00  0.00     0.206 C 
ATOM     56  OXT LEU     7      28.978  25.401  32.159  1.00 99.99    -0.646 OA
ATOM     57  O   LEU     7      28.983  23.188  31.885  1.00 99.99    -0.646 OA
ENDBRANCH  54  55
BRANCH  54  58
ATOM     58  CB  LEU     7      31.886  24.808  32.266  1.00  0.00     0.033 C 
BRANCH  58  59
ATOM     59  CG  LEU     7      33.326  25.099  31.825  1.00  0.00     0.002 C 
ATOM     60  CD1 LEU     7      34.112  25.651  33.016  1.00  0.00     0.000 C 
ATOM     61  CD2 LEU     7      34.020  23.845  31.286  1.00  0.00     0.000 C 
ENDBRANCH  58  59
ENDBRANCH  54  58
ENDBRANCH  52  54
ENDBRANCH  49  50
BRANCH  49  62
ATOM     62  CB  TRP     6      31.853  27.821  28.108  1.00  0.00     0.059 C 
BRANCH  62  63
ATOM     63  CG  TRP     6      33.309  27.456  27.829  1.00  0.00    -0.016 A 
ATOM     64  CD1 TRP     6      34.215  27.172  28.757  1.00  0.00     0.097 A 
ATOM     65  NE1 TRP     6      35.307  26.680  28.174  1.00  0.00    -0.365 N 
ATOM     66  HE1 TRP     6      36.111  26.338  28.661  1.00 99.99     0.165 HD
ATOM     67  CE2 TRP     6      35.132  26.660  26.854  1.00  0.00     0.042 A 
ATOM     68  CZ2 TRP     6      35.921  26.207  25.801  1.00  0.00     0.030 A 
ATOM     69  CD2 TRP     6      33.871  27.170  26.593  1.00  0.00    -0.001 A 
ATOM     70  CH2 TRP     6      35.449  26.288  24.494  1.00  0.00     0.002 A 
ATOM     71  CZ3 TRP     6      34.186  26.810  24.240  1.00  0.00     0.001 A 
ATOM     72  CE3 TRP     6      33.393  27.248  25.292  1.00  0.00     0.014 A 
ENDBRANCH  62  63
ENDBRANCH  49  62
ENDBRANCH  46  49
ENDBRANCH  36  45
ENDBRANCH  33  36
ENDBRANCH  31  32
BRANCH  31  73
ATOM     73  CB  LYS     4      25.640  28.555  32.651  1.00  0.00     0.032 C 
BRANCH  73  74
ATOM     74  CG  LYS     4      25.662  28.358  34.167  1.00  0.00     0.004 C 
BRANCH  74  75
ATOM     75  CD  LYS     4      24.275  28.706  34.714  1.00  0.00     0.032 C 
BRANCH  75  76
ATOM     76  CE  LYS     4      24.152  28.423  36.212  1.00  0.00     0.206 C 
BRANCH  76  77
ATOM     77  NZ  LYS     4      22.757  28.574  36.652  1.00  0.00    -0.064 N 
ATOM     78  HZ3 LYS     4      22.181  27.925  36.153  1.00 99.99     0.275 HD
ATOM     79  HZ2 LYS     4      22.440  29.505  36.468  1.00 99.99     0.275 HD
ATOM     80  HZ1 LYS     4      22.692  28.385  37.632  1.00 99.99     0.275 HD
ENDBRANCH  76  77
ENDBRANCH  75  76
ENDBRANCH  74  75
ENDBRANCH  73  74
ENDBRANCH  31  73
ENDBRANCH  28  31
ENDBRANCH  26  27
BRANCH  26  81
ATOM     81  CB  LEU     3      30.358  29.952  33.756  1.00  0.00     0.032 C 
BRANCH  81  82
ATOM     82  CG  LEU     3      31.603  30.718  34.225  1.00  0.00     0.002 C 
ATOM     83  CD2 LEU     3      32.884  29.909  33.990  1.00  0.00     0.000 C 
ATOM     84  CD1 LEU     3      31.477  31.051  35.713  1.00  0.00     0.000 C 
ENDBRANCH  81  82
ENDBRANCH  26  81
ENDBRANCH  24  26
ENDBRANCH  10  22
ENDBRANCH   7  10
ENDBRANCH   5   6
BRANCH   5  85
ATOM     85  CB  LYS     1      25.482  34.713  31.062  1.00  0.00     0.040 C 
BRANCH  85  86
ATOM     86  CG  LYS     1      24.565  34.173  29.948  1.00  0.00     0.004 C 
BRANCH  86  87
ATOM     87  CD  LYS     1      23.773  35.259  29.201  1.00  0.00     0.032 C 
BRANCH  87  88
ATOM     88  CE  LYS     1      22.848  34.657  28.133  1.00  0.00     0.206 C 
BRANCH  88  89
ATOM     89  NZ  LYS     1      22.013  35.664  27.450  1.00  0.00    -0.064 N 
ATOM     90  HZ3 LYS     1      22.591  36.341  26.996  1.00 99.99     0.275 HD
ATOM     91  HZ2 LYS     1      21.420  36.121  28.113  1.00 99.99     0.275 HD
ATOM     92  HZ1 LYS     1      21.440  35.214  26.763  1.00 99.99     0.275 HD
ENDBRANCH  88  89
ENDBRANCH  87  88
ENDBRANCH  86  87
ENDBRANCH  85  86
ENDBRANCH   5  85
ENDBRANCH   1   5
TORSDOF 37
