REMARK WARNING: 32 MAX_TORS EXCEEDED!!!
REMARK  41 active torsions:
REMARK  status: ('A' for Active; 'I' for Inactive)
REMARK    1  A    between atoms: N_1  and  CA_2 
REMARK    2  A    between atoms: CA_2  and  CB_5 
REMARK    3  A    between atoms: CA_2  and  C_3 
REMARK       I    between atoms: C_3  and  N_20 
REMARK    4  A    between atoms: CB_5  and  CG_6 
REMARK    5  A    between atoms: CG_6  and  CD_7 
REMARK    6  A    between atoms: CD_7  and  NE_8 
REMARK       I    between atoms: NE_8  and  CZ_9 
REMARK       I    between atoms: CZ_9  and  NH1_10 
REMARK    7  A    between atoms: N_20  and  CA_21 
REMARK    8  A    between atoms: CA_21  and  CB_24 
REMARK    9  A    between atoms: CA_21  and  C_22 
REMARK       I    between atoms: C_22  and  N_28 
REMARK   10  A    between atoms: N_28  and  CA_29 
REMARK   11  A    between atoms: CA_29  and  C_30 
REMARK   12  A    between atoms: CA_29  and  CB_32 
REMARK       I    between atoms: C_30  and  N_36 
REMARK   13  A    between atoms: CB_32  and  SG_33 
REMARK   14  A    between atoms: N_36  and  CA_37 
REMARK   15  A    between atoms: CA_37  and  C_38 
REMARK   16  A    between atoms: CA_37  and  CB_40 
REMARK       I    between atoms: C_38  and  N_48 
REMARK   17  A    between atoms: CB_40  and  CG_41 
REMARK   18  A    between atoms: N_48  and  CA_49 
REMARK   19  A    between atoms: CA_49  and  C_50 
REMARK       I    between atoms: C_50  and  N_54 
REMARK   20  A    between atoms: N_54  and  CA_55 
REMARK   21  A    between atoms: CA_55  and  CB_58 
REMARK   22  A    between atoms: CA_55  and  C_56 
REMARK       I    between atoms: C_56  and  N_63 
REMARK   23  A    between atoms: CB_58  and  CG1_59 
REMARK   24  A    between atoms: CA_64  and  C_65 
REMARK       I    between atoms: C_65  and  N_70 
REMARK   25  A    between atoms: N_70  and  CA_71 
REMARK   26  A    between atoms: CA_71  and  CB_74 
REMARK   27  A    between atoms: CA_71  and  C_72 
REMARK       I    between atoms: C_72  and  N_79 
REMARK   28  A    between atoms: CB_74  and  CG_75 
REMARK   29  A    between atoms: CA_80  and  C_81 
REMARK       I    between atoms: C_81  and  N_86 
REMARK   30  A    between atoms: N_86  and  CA_87 
REMARK   31  A    between atoms: CA_87  and  C_88 
REMARK   32  A    between atoms: CA_87  and  CB_90 
REMARK       I    between atoms: C_88  and  N_95 
REMARK   33  A    between atoms: CB_90  and  CG1_91 
REMARK   34  A    between atoms: N_95  and  CA_96 
REMARK   35  A    between atoms: CA_96  and  C_97 
REMARK   36  A    between atoms: CA_96  and  CB_99 
REMARK       I    between atoms: C_97  and  N_103 
REMARK   37  A    between atoms: CB_99  and  SG_100 
REMARK   38  A    between atoms: N_103  and  CA_104 
REMARK   39  A    between atoms: CA_104  and  C_105 
REMARK   40  A    between atoms: CA_104  and  CB_107 
REMARK   41  A    between atoms: CB_107  and  CG_108 
ROOT
ATOM      1  N   ARG     1      26.692  30.113  29.617  1.00  0.00    -0.058 N 
ATOM      2  H1  ARG     1      27.624  30.384  29.857  1.00 99.99     0.276 HD
ATOM      3  H2  ARG     1      26.724  29.643  28.748  1.00 99.99     0.276 HD
ATOM      4  H3  ARG     1      26.146  30.925  29.445  1.00 99.99     0.276 HD
ENDROOT
BRANCH   1   5
ATOM      5  CA  ARG     1      26.122  29.257  30.695  1.00  0.00     0.255 C 
BRANCH   5   6
ATOM      6  CB  ARG     1      25.717  27.870  30.157  1.00  0.00     0.042 C 
BRANCH   6   7
ATOM      7  CG  ARG     1      24.412  27.769  29.359  1.00  0.00     0.027 C 
BRANCH   7   8
ATOM      8  CD  ARG     1      24.116  26.287  29.087  1.00  0.00     0.116 C 
BRANCH   8   9
ATOM      9  NE  ARG     1      22.895  26.098  28.279  1.00  0.00    -0.212 N 
ATOM     10  HE  ARG     1      22.403  26.934  28.049  1.00 99.99     0.178 HD
ATOM     11  CZ  ARG     1      22.384  24.929  27.870  1.00  0.00     0.666 C 
ATOM     12  NH2 ARG     1      21.340  24.906  27.050  1.00  0.00    -0.235 N 
ATOM     13  NH1 ARG     1      22.924  23.762  28.200  1.00  0.00    -0.235 N 
ATOM     14 2HH2 ARG     1      20.923  25.754  26.733  1.00 99.99     0.174 HD
ATOM     15 1HH2 ARG     1      20.974  24.028  26.747  1.00 99.99     0.174 HD
ATOM     16 1HH1 ARG     1      22.523  22.908  27.875  1.00 99.99     0.174 HD
ATOM     17 2HH1 ARG     1      23.730  23.750  28.788  1.00 99.99     0.174 HD
ENDBRANCH   8   9
ENDBRANCH   7   8
ENDBRANCH   6   7
ENDBRANCH   5   6
BRANCH   5  18
ATOM     18  C   ARG     1      27.084  29.042  31.896  1.00  0.00     0.259 C 
ATOM     19  O   ARG     1      27.000  28.069  32.648  1.00  0.00    -0.271 OA
ATOM     20  N   VAL     2      27.967  30.018  32.097  1.00  0.00    -0.338 N 
ATOM     21  H   VAL     2      27.823  30.936  31.728  1.00 99.99     0.164 HD
BRANCH  20  22
ATOM     22  CA  VAL     2      29.124  29.949  33.017  1.00  0.00     0.159 C 
BRANCH  22  23
ATOM     23  CB  VAL     2      30.405  29.488  32.282  1.00  0.00     0.029 C 
ATOM     24  CG1 VAL     2      30.375  27.980  32.014  1.00  0.00     0.002 C 
ATOM     25  CG2 VAL     2      30.653  30.221  30.954  1.00  0.00     0.002 C 
ENDBRANCH  22  23
BRANCH  22  26
ATOM     26  C   VAL     2      29.321  31.328  33.669  1.00  0.00     0.251 C 
ATOM     27  O   VAL     2      29.047  32.340  33.024  1.00  0.00    -0.271 OA
ATOM     28  N   CYS     3      29.676  31.339  34.953  1.00  0.00    -0.337 N 
ATOM     29  H   CYS     3      29.851  30.501  35.469  1.00 99.99     0.164 HD
BRANCH  28  30
ATOM     30  CA  CYS     3      29.827  32.582  35.742  1.00  0.00     0.170 C 
BRANCH  30  31
ATOM     31  C   CYS     3      30.963  32.414  36.765  1.00  0.00     0.252 C 
ATOM     32  O   CYS     3      30.961  31.451  37.530  1.00  0.00    -0.271 OA
ATOM     33  N   PHE     4      31.947  33.309  36.703  1.00  0.00    -0.337 N 
ATOM     34  H   PHE     4      31.902  34.098  36.089  1.00 99.99     0.164 HD
BRANCH  33  35
ATOM     35  CA  PHE     4      33.126  33.303  37.603  1.00  0.00     0.164 C 
BRANCH  35  36
ATOM     36  C   PHE     4      33.546  34.740  37.983  1.00  0.00     0.251 C 
ATOM     37  O   PHE     4      32.982  35.697  37.460  1.00  0.00    -0.271 OA
ATOM     38  N   ALA     5      34.537  34.870  38.870  1.00  0.00    -0.338 N 
ATOM     39  H   ALA     5      34.934  34.073  39.318  1.00 99.99     0.164 HD
BRANCH  38  40
ATOM     40  CA  ALA     5      34.993  36.185  39.386  1.00  0.00     0.159 C 
ATOM     41  CB  ALA     5      34.747  36.240  40.897  1.00  0.00     0.034 C 
BRANCH  40  42
ATOM     42  C   ALA     5      36.445  36.618  39.082  1.00  0.00     0.251 C 
ATOM     43  N   ILE     6      37.343  35.651  38.898  1.00  0.00    -0.338 N 
ATOM     44  H   ILE     6      37.074  34.694  38.855  1.00 99.99     0.164 HD
ATOM     45  O   ALA     5      36.755  37.805  39.092  1.00  0.00    -0.271 OA
BRANCH  43  46
ATOM     46  CA  ILE     6      38.792  35.884  38.669  1.00  0.00     0.160 C 
BRANCH  46  47
ATOM     47  CB  ILE     6      39.566  34.557  38.825  1.00  0.00     0.029 C 
ATOM     48  CG2 ILE     6      39.574  34.158  40.309  1.00  0.00     0.002 C 
BRANCH  47  49
ATOM     49  CG1 ILE     6      39.031  33.443  37.903  1.00  0.00     0.002 C 
ATOM     50  CD  ILE     6      39.928  32.201  37.827  1.00  0.00     0.000 C 
ENDBRANCH  47  49
ENDBRANCH  46  47
BRANCH  46  51
ATOM     51  C   ILE     6      39.087  36.565  37.310  1.00  0.00     0.254 C 
ATOM     52  O   ILE     6      38.368  36.267  36.360  1.00  0.00    -0.270 OA
ATOM     53  N   PRO     7      40.134  37.395  37.164  1.00  0.00    -0.312 N 
ATOM     54  CD  PRO     7      41.125  37.742  38.202  1.00  0.00     0.105 C 
ATOM     55  CA  PRO     7      40.429  38.117  35.904  1.00  0.00     0.163 C 
ATOM     56  CG  PRO     7      42.272  38.392  37.427  1.00  0.00     0.027 C 
ATOM     57  CB  PRO     7      41.567  39.081  36.258  1.00  0.00     0.034 C 
BRANCH  55  58
ATOM     58  C   PRO     7      40.725  37.228  34.677  1.00  0.00     0.251 C 
ATOM     59  N   LEU     8      39.642  36.914  33.967  1.00  0.00    -0.338 N 
ATOM     60  H   LEU     8      38.744  37.202  34.301  1.00 99.99     0.164 HD
ATOM     61  O   PRO     7      41.865  36.889  34.366  1.00  0.00    -0.271 OA
BRANCH  59  62
ATOM     62  CA  LEU     8      39.585  36.060  32.758  1.00  0.00     0.160 C 
BRANCH  62  63
ATOM     63  CB  LEU     8      39.351  34.584  33.125  1.00  0.00     0.032 C 
BRANCH  63  64
ATOM     64  CG  LEU     8      40.548  33.819  33.703  1.00  0.00     0.002 C 
ATOM     65  CD2 LEU     8      41.728  33.768  32.727  1.00  0.00     0.000 C 
ATOM     66  CD1 LEU     8      40.100  32.392  34.022  1.00  0.00     0.000 C 
ENDBRANCH  63  64
ENDBRANCH  62  63
BRANCH  62  67
ATOM     67  C   LEU     8      38.414  36.491  31.850  1.00  0.00     0.254 C 
ATOM     68  O   LEU     8      37.368  36.865  32.386  1.00  0.00    -0.270 OA
ATOM     69  N   PRO     9      38.525  36.325  30.519  1.00  0.00    -0.312 N 
ATOM     70  CD  PRO     9      39.761  35.921  29.815  1.00  0.00     0.105 C 
ATOM     71  CA  PRO     9      37.488  36.698  29.525  1.00  0.00     0.163 C 
ATOM     72  CG  PRO     9      39.536  36.323  28.357  1.00  0.00     0.027 C 
ATOM     73  CB  PRO     9      38.027  36.177  28.193  1.00  0.00     0.034 C 
BRANCH  71  74
ATOM     74  C   PRO     9      36.040  36.206  29.731  1.00  0.00     0.251 C 
ATOM     75  N   ILE    10      35.850  35.172  30.550  1.00  0.00    -0.338 N 
ATOM     76  H   ILE    10      36.613  34.610  30.857  1.00 99.99     0.164 HD
ATOM     77  O   PRO     9      35.153  36.649  29.011  1.00  0.00    -0.271 OA
BRANCH  75  78
ATOM     78  CA  ILE    10      34.518  34.647  30.947  1.00  0.00     0.159 C 
BRANCH  78  79
ATOM     79  C   ILE    10      33.880  35.412  32.138  1.00  0.00     0.251 C 
ATOM     80  O   ILE    10      32.667  35.385  32.330  1.00  0.00    -0.271 OA
ATOM     81  N   CYS    11      34.718  36.080  32.927  1.00  0.00    -0.337 N 
ATOM     82  H   CYS    11      35.688  36.154  32.704  1.00 99.99     0.164 HD
BRANCH  81  83
ATOM     83  CA  CYS    11      34.345  36.749  34.197  1.00  0.00     0.170 C 
BRANCH  83  84
ATOM     84  C   CYS    11      34.194  38.276  34.056  1.00  0.00     0.252 C 
ATOM     85  O   CYS    11      33.758  38.956  34.980  1.00  0.00    -0.271 OA
ATOM     86  N   HIS    12      34.844  38.801  33.021  1.00  0.00    -0.336 N 
ATOM     87  H   HIS    12      35.378  38.221  32.411  1.00 99.99     0.164 HD
BRANCH  86  88
ATOM     88  CA  HIS    12      34.822  40.230  32.654  1.00  0.00     0.174 C 
BRANCH  88  89
ATOM     89  C   HIS    12      33.649  40.544  31.708  1.00  0.00     0.207 C 
ATOM     90  O   HIS    12      32.909  41.510  31.988  1.00 99.99    -0.646 OA
ATOM     91  OXT HIS    12      33.521  39.776  30.728  1.00 99.99    -0.646 OA
ENDBRANCH  88  89
BRANCH  88  92
ATOM     92  CB  HIS    12      36.144  40.576  31.956  1.00  0.00     0.078 C 
BRANCH  92  93
ATOM     93  CG  HIS    12      37.401  40.442  32.826  1.00  0.00     0.057 A 
ATOM     94  ND1 HIS    12      38.617  40.168  32.355  1.00  0.00    -0.338 N 
ATOM     95  CE1 HIS    12      39.511  40.499  33.280  1.00  0.00     0.175 A 
ATOM     96  HD1 HIS    12      38.825  39.758  31.467  1.00 99.99     0.167 HD
ATOM     97  NE2 HIS    12      38.851  40.936  34.346  1.00  0.00    -0.223 NA
ATOM     98  CD2 HIS    12      37.550  40.897  34.070  1.00  0.00     0.113 A 
ENDBRANCH  92  93
ENDBRANCH  88  92
ENDBRANCH  86  88
ENDBRANCH  83  84
BRANCH  83  99
ATOM     99  CB  CYS    11      35.455  36.527  35.223  1.00  0.00     0.085 C 
BRANCH  99 100
ATOM    100  SG  CYS    11      36.158  34.841  35.286  1.00  0.00    -0.165 SA
ATOM    101  HG  CYS    11      37.055  35.155  36.221  1.00 99.99     0.102 HD
ENDBRANCH  99 100
ENDBRANCH  83  99
ENDBRANCH  81  83
ENDBRANCH  78  79
BRANCH  78 102
ATOM    102  CB  ILE    10      34.658  33.123  31.187  1.00  0.00     0.029 C 
ATOM    103  CG2 ILE    10      33.401  32.487  31.805  1.00  0.00     0.002 C 
BRANCH 102 104
ATOM    104  CG1 ILE    10      35.029  32.419  29.866  1.00  0.00     0.002 C 
ATOM    105  CD  ILE    10      35.460  30.952  30.006  1.00  0.00     0.000 C 
ENDBRANCH 102 104
ENDBRANCH  78 102
ENDBRANCH  75  78
ENDBRANCH  71  74
ENDBRANCH  62  67
ENDBRANCH  59  62
ENDBRANCH  55  58
ENDBRANCH  46  51
ENDBRANCH  43  46
ENDBRANCH  40  42
ENDBRANCH  38  40
ENDBRANCH  35  36
BRANCH  35 106
ATOM    106  CB  PHE     4      34.298  32.555  36.948  1.00  0.00     0.056 C 
BRANCH 106 107
ATOM    107  CG  PHE     4      33.996  31.096  36.603  1.00  0.00    -0.044 A 
ATOM    108  CD2 PHE     4      34.117  30.107  37.573  1.00  0.00     0.008 A 
ATOM    109  CE2 PHE     4      33.835  28.785  37.255  1.00  0.00     0.001 A 
ATOM    110  CZ  PHE     4      33.423  28.450  35.971  1.00  0.00     0.000 A 
ATOM    111  CE1 PHE     4      33.294  29.437  35.003  1.00  0.00     0.001 A 
ATOM    112  CD1 PHE     4      33.587  30.759  35.318  1.00  0.00     0.008 A 
ENDBRANCH 106 107
ENDBRANCH  35 106
ENDBRANCH  33  35
ENDBRANCH  30  31
BRANCH  30 113
ATOM    113  CB  CYS     3      28.532  32.878  36.514  1.00  0.00     0.085 C 
BRANCH 113 114
ATOM    114  SG  CYS     3      26.988  32.870  35.529  1.00  0.00    -0.165 SA
ATOM    115  HG  CYS     3      26.175  33.149  36.545  1.00 99.99     0.102 HD
ENDBRANCH 113 114
ENDBRANCH  30 113
ENDBRANCH  28  30
ENDBRANCH  22  26
ENDBRANCH  20  22
ENDBRANCH   5  18
ENDBRANCH   1   5
TORSDOF 41
