REMARK WARNING: 32 MAX_TORS EXCEEDED!!!
REMARK  80 active torsions:
REMARK  status: ('A' for Active; 'I' for Inactive)
REMARK    1  A    between atoms: N_1  and  CA_2 
REMARK    2  A    between atoms: CA_2  and  C_3 
REMARK    3  A    between atoms: CA_2  and  CB_5 
REMARK       I    between atoms: C_3  and  N_15 
REMARK    4  A    between atoms: CB_5  and  CG_6 
REMARK    5  A    between atoms: N_15  and  CA_16 
REMARK    6  A    between atoms: CA_16  and  C_17 
REMARK    7  A    between atoms: CA_16  and  CB_19 
REMARK       I    between atoms: C_17  and  N_24 
REMARK    8  A    between atoms: CB_19  and  CG_20 
REMARK    9  A    between atoms: CA_25  and  C_26 
REMARK       I    between atoms: C_26  and  N_31 
REMARK   10  A    between atoms: N_31  and  CA_32 
REMARK   11  A    between atoms: CA_32  and  C_33 
REMARK   12  A    between atoms: CA_32  and  CB_35 
REMARK       I    between atoms: C_33  and  N_44 
REMARK   13  A    between atoms: CB_35  and  CG_36 
REMARK   14  A    between atoms: CG_36  and  CD_37 
REMARK   15  A    between atoms: CD_37  and  CE_38 
REMARK   16  A    between atoms: CE_38  and  NZ_39 
REMARK   17  A    between atoms: N_44  and  CA_45 
REMARK   18  A    between atoms: CA_45  and  C_46 
REMARK   19  A    between atoms: CA_45  and  CB_48 
REMARK       I    between atoms: C_46  and  N_53 
REMARK   20  A    between atoms: CB_48  and  CG_49 
REMARK   21  A    between atoms: N_53  and  CA_54 
REMARK   22  A    between atoms: CA_54  and  CB_57 
REMARK   23  A    between atoms: CA_54  and  C_55 
REMARK       I    between atoms: C_55  and  N_65 
REMARK   24  A    between atoms: CB_57  and  CG_58 
REMARK   25  A    between atoms: N_65  and  CA_66 
REMARK   26  A    between atoms: CA_66  and  C_67 
REMARK       I    between atoms: C_67  and  N_71 
REMARK   27  A    between atoms: N_71  and  CA_72 
REMARK   28  A    between atoms: CA_72  and  C_73 
REMARK   29  A    between atoms: CA_72  and  CB_75 
REMARK       I    between atoms: C_73  and  N_84 
REMARK   30  A    between atoms: CB_75  and  CG_76 
REMARK   31  A    between atoms: CG_76  and  CD_77 
REMARK   32  A    between atoms: CD_77  and  CE_78 
REMARK   33  A    between atoms: CE_78  and  NZ_79 
REMARK   34  A    between atoms: N_84  and  CA_85 
REMARK   35  A    between atoms: CA_85  and  CB_88 
REMARK   36  A    between atoms: CA_85  and  C_86 
REMARK       I    between atoms: C_86  and  N_93 
REMARK   37  A    between atoms: CB_88  and  CG1_89 
REMARK   38  A    between atoms: N_93  and  CA_94 
REMARK   39  A    between atoms: CA_94  and  CB_97 
REMARK   40  A    between atoms: CA_94  and  C_95 
REMARK       I    between atoms: C_95  and  N_102 
REMARK   41  A    between atoms: CB_97  and  OG1_98 
REMARK   42  A    between atoms: N_102  and  CA_103 
REMARK   43  A    between atoms: CA_103  and  CB_106 
REMARK   44  A    between atoms: CA_103  and  C_104 
REMARK       I    between atoms: C_104  and  N_115 
REMARK   45  A    between atoms: CB_106  and  CG_107 
REMARK   46  A    between atoms: CG_107  and  CD_108 
REMARK   47  A    between atoms: CD_108  and  CE_109 
REMARK   48  A    between atoms: CE_109  and  NZ_110 
REMARK   49  A    between atoms: N_115  and  CA_116 
REMARK   50  A    between atoms: CA_116  and  C_117 
REMARK   51  A    between atoms: CA_116  and  CB_119 
REMARK       I    between atoms: C_117  and  N_128 
REMARK   52  A    between atoms: CB_119  and  CG_120 
REMARK   53  A    between atoms: CG_120  and  CD_121 
REMARK   54  A    between atoms: CD_121  and  CE_122 
REMARK   55  A    between atoms: CE_122  and  NZ_123 
REMARK   56  A    between atoms: N_128  and  CA_129 
REMARK   57  A    between atoms: CA_129  and  C_130 
REMARK   58  A    between atoms: CA_129  and  CB_132 
REMARK       I    between atoms: C_130  and  N_139 
REMARK   59  A    between atoms: CB_132  and  CG_133 
REMARK       I    between atoms: CG_133  and  ND2_135 
REMARK   60  A    between atoms: N_139  and  CA_140 
REMARK   61  A    between atoms: CA_140  and  C_141 
REMARK   62  A    between atoms: CA_140  and  CB_143 
REMARK       I    between atoms: C_141  and  N_148 
REMARK   63  A    between atoms: CB_143  and  CG_144 
REMARK   64  A    between atoms: CG_144  and  SD_145 
REMARK   65  A    between atoms: N_148  and  CA_149 
REMARK   66  A    between atoms: CA_149  and  C_150 
REMARK       I    between atoms: C_150  and  N_154 
REMARK   67  A    between atoms: N_154  and  CA_155 
REMARK   68  A    between atoms: CA_155  and  C_156 
REMARK   69  A    between atoms: CA_155  and  CB_158 
REMARK       I    between atoms: C_156  and  N_166 
REMARK   70  A    between atoms: CB_158  and  CG_159 
REMARK   71  A    between atoms: N_166  and  CA_167 
REMARK   72  A    between atoms: CA_167  and  CB_170 
REMARK   73  A    between atoms: CA_167  and  C_168 
REMARK       I    between atoms: C_168  and  N_175 
REMARK   74  A    between atoms: CB_170  and  CG1_171 
REMARK   75  A    between atoms: N_175  and  CA_176 
REMARK   76  A    between atoms: CA_176  and  CB_179 
REMARK   77  A    between atoms: CA_176  and  C_177 
REMARK   78  A    between atoms: CB_179  and  CG_180 
REMARK   79  A    between atoms: CG_180  and  CD_181 
REMARK   80  A    between atoms: CD_181  and  NE_182 
REMARK       I    between atoms: NE_182  and  CZ_183 
REMARK       I    between atoms: CZ_183  and  NH1_184 
ROOT
ATOM      1  N   PHE     1      35.940  31.677  48.439  1.00  0.00    -0.057 N 
ATOM      2  H1  PHE     1      35.278  30.955  48.265  1.00 99.99     0.276 HD
ATOM      3  H2  PHE     1      36.835  31.263  48.606  1.00 99.99     0.276 HD
ATOM      4  H3  PHE     1      35.734  32.141  49.301  1.00 99.99     0.276 HD
ENDROOT
BRANCH   1   5
ATOM      5  CA  PHE     1      35.998  32.645  47.297  1.00  0.00     0.259 C 
BRANCH   5   6
ATOM      6  C   PHE     1      35.069  32.464  46.060  1.00  0.00     0.259 C 
ATOM      7  N   LEU     2      33.930  31.780  46.210  1.00  0.00    -0.338 N 
ATOM      8  H   LEU     2      33.563  31.530  47.104  1.00 99.99     0.164 HD
ATOM      9  O   PHE     1      35.265  33.133  45.044  1.00  0.00    -0.271 OA
BRANCH   7  10
ATOM     10  CA  LEU     2      33.082  31.412  45.051  1.00  0.00     0.160 C 
BRANCH  10  11
ATOM     11  C   LEU     2      32.612  32.592  44.158  1.00  0.00     0.254 C 
ATOM     12  N   PRO     3      32.093  33.717  44.700  1.00  0.00    -0.312 N 
ATOM     13  CD  PRO     3      31.559  33.883  46.070  1.00  0.00     0.105 C 
ATOM     14  CA  PRO     3      31.747  34.904  43.895  1.00  0.00     0.163 C 
ATOM     15  CG  PRO     3      30.586  35.058  45.966  1.00  0.00     0.027 C 
ATOM     16  CB  PRO     3      31.221  35.937  44.893  1.00  0.00     0.034 C 
ATOM     17  O   LEU     2      32.907  32.530  42.967  1.00  0.00    -0.270 OA
BRANCH  14  18
ATOM     18  C   PRO     3      32.935  35.465  43.096  1.00  0.00     0.251 C 
ATOM     19  O   PRO     3      32.837  35.536  41.874  1.00  0.00    -0.271 OA
ATOM     20  N   LYS     4      34.085  35.667  43.750  1.00  0.00    -0.338 N 
ATOM     21  H   LYS     4      34.156  35.545  44.740  1.00 99.99     0.164 HD
BRANCH  20  22
ATOM     22  CA  LYS     4      35.324  36.146  43.103  1.00  0.00     0.159 C 
BRANCH  22  23
ATOM     23  C   LYS     4      35.815  35.196  41.992  1.00  0.00     0.251 C 
ATOM     24  N   LEU     5      35.721  33.885  42.230  1.00  0.00    -0.338 N 
ATOM     25  H   LEU     5      35.462  33.528  43.133  1.00 99.99     0.164 HD
ATOM     26  O   LYS     4      36.147  35.656  40.899  1.00  0.00    -0.271 OA
BRANCH  24  27
ATOM     27  CA  LEU     5      36.047  32.865  41.217  1.00  0.00     0.159 C 
BRANCH  27  28
ATOM     28  C   LEU     5      35.108  32.888  40.007  1.00  0.00     0.251 C 
ATOM     29  N   PHE     6      33.797  32.839  40.263  1.00  0.00    -0.337 N 
ATOM     30  H   PHE     6      33.444  32.699  41.194  1.00 99.99     0.164 HD
ATOM     31  O   LEU     5      35.567  33.149  38.895  1.00  0.00    -0.271 OA
BRANCH  29  32
ATOM     32  CA  PHE     6      32.767  32.939  39.213  1.00  0.00     0.164 C 
BRANCH  32  33
ATOM     33  CB  PHE     6      31.372  32.804  39.834  1.00  0.00     0.056 C 
BRANCH  33  34
ATOM     34  CG  PHE     6      30.256  32.826  38.771  1.00  0.00    -0.044 A 
ATOM     35  CD1 PHE     6      30.005  31.702  38.009  1.00  0.00     0.008 A 
ATOM     36  CE1 PHE     6      29.001  31.716  37.051  1.00  0.00     0.001 A 
ATOM     37  CZ  PHE     6      28.236  32.870  36.860  1.00  0.00     0.000 A 
ATOM     38  CE2 PHE     6      28.490  34.001  37.639  1.00  0.00     0.001 A 
ATOM     39  CD2 PHE     6      29.505  33.973  38.591  1.00  0.00     0.008 A 
ENDBRANCH  33  34
ENDBRANCH  32  33
BRANCH  32  40
ATOM     40  C   PHE     6      32.915  34.242  38.408  1.00  0.00     0.251 C 
ATOM     41  O   PHE     6      33.188  34.170  37.213  1.00  0.00    -0.271 OA
ATOM     42  N   ALA     7      33.031  35.372  39.109  1.00  0.00    -0.338 N 
ATOM     43  H   ALA     7      32.926  35.382  40.113  1.00 99.99     0.164 HD
BRANCH  42  44
ATOM     44  CA  ALA     7      33.264  36.693  38.503  1.00  0.00     0.159 C 
ATOM     45  CB  ALA     7      33.333  37.773  39.588  1.00  0.00     0.034 C 
BRANCH  44  46
ATOM     46  C   ALA     7      34.527  36.747  37.623  1.00  0.00     0.251 C 
ATOM     47  O   ALA     7      34.427  37.179  36.476  1.00  0.00    -0.271 OA
ATOM     48  N   LYS     8      35.637  36.162  38.084  1.00  0.00    -0.338 N 
ATOM     49  H   LYS     8      35.709  35.817  39.028  1.00 99.99     0.164 HD
BRANCH  48  50
ATOM     50  CA  LYS     8      36.877  36.062  37.291  1.00  0.00     0.159 C 
BRANCH  50  51
ATOM     51  C   LYS     8      36.700  35.177  36.040  1.00  0.00     0.251 C 
ATOM     52  O   LYS     8      36.967  35.638  34.933  1.00  0.00    -0.271 OA
ATOM     53  N   ILE     9      36.117  33.988  36.212  1.00  0.00    -0.338 N 
ATOM     54  H   ILE     9      35.830  33.673  37.126  1.00 99.99     0.164 HD
BRANCH  53  55
ATOM     55  CA  ILE     9      35.861  33.036  35.112  1.00  0.00     0.159 C 
BRANCH  55  56
ATOM     56  CB  ILE     9      35.387  31.669  35.660  1.00  0.00     0.029 C 
ATOM     57  CG2 ILE     9      35.046  30.692  34.522  1.00  0.00     0.002 C 
BRANCH  56  58
ATOM     58  CG1 ILE     9      36.476  31.063  36.564  1.00  0.00     0.002 C 
ATOM     59  CD  ILE     9      35.993  29.913  37.458  1.00  0.00     0.000 C 
ENDBRANCH  56  58
ENDBRANCH  55  56
BRANCH  55  60
ATOM     60  C   ILE     9      34.899  33.646  34.070  1.00  0.00     0.251 C 
ATOM     61  N   THR    10      33.729  34.100  34.521  1.00  0.00    -0.336 N 
ATOM     62  H   THR    10      33.450  33.998  35.486  1.00 99.99     0.164 HD
ATOM     63  O   ILE     9      35.297  33.853  32.926  1.00  0.00    -0.271 OA
BRANCH  61  64
ATOM     64  CA  THR    10      32.704  34.718  33.658  1.00  0.00     0.186 C 
BRANCH  64  65
ATOM     65  CB  THR    10      31.427  35.057  34.448  1.00  0.00     0.140 C 
ATOM     66  CG2 THR    10      30.272  35.480  33.531  1.00  0.00     0.034 C 
BRANCH  65  67
ATOM     67  OG1 THR    10      31.018  33.895  35.180  1.00  0.00    -0.382 OA
ATOM     68  HG1 THR    10      30.190  34.089  35.711  1.00 99.99     0.210 HD
ENDBRANCH  65  67
ENDBRANCH  64  65
BRANCH  64  69
ATOM     69  C   THR    10      33.264  35.949  32.920  1.00  0.00     0.253 C 
ATOM     70  O   THR    10      33.203  35.960  31.694  1.00  0.00    -0.270 OA
ATOM     71  N   LYS    11      33.969  36.843  33.621  1.00  0.00    -0.337 N 
ATOM     72  H   LYS    11      34.073  36.797  34.623  1.00 99.99     0.164 HD
BRANCH  71  73
ATOM     73  CA  LYS    11      34.631  37.997  32.981  1.00  0.00     0.159 C 
BRANCH  73  74
ATOM     74  CB  LYS    11      35.214  38.987  33.996  1.00  0.00     0.032 C 
BRANCH  74  75
ATOM     75  CG  LYS    11      34.118  39.816  34.670  1.00  0.00     0.004 C 
BRANCH  75  76
ATOM     76  CD  LYS    11      34.717  40.783  35.693  1.00  0.00     0.032 C 
BRANCH  76  77
ATOM     77  CE  LYS    11      33.615  41.575  36.403  1.00  0.00     0.206 C 
BRANCH  77  78
ATOM     78  NZ  LYS    11      34.179  42.526  37.368  1.00  0.00    -0.064 N 
ATOM     79  HZ3 LYS    11      34.772  43.175  36.889  1.00 99.99     0.275 HD
ATOM     80  HZ2 LYS    11      34.715  42.033  38.054  1.00 99.99     0.275 HD
ATOM     81  HZ1 LYS    11      33.437  43.025  37.818  1.00 99.99     0.275 HD
ENDBRANCH  77  78
ENDBRANCH  76  77
ENDBRANCH  75  76
ENDBRANCH  74  75
ENDBRANCH  73  74
BRANCH  73  82
ATOM     82  C   LYS    11      35.715  37.601  31.962  1.00  0.00     0.251 C 
ATOM     83  O   LYS    11      35.664  38.073  30.828  1.00  0.00    -0.271 OA
ATOM     84  N   LYS    12      36.558  36.623  32.299  1.00  0.00    -0.338 N 
ATOM     85  H   LYS    12      36.560  36.204  33.220  1.00 99.99     0.164 HD
BRANCH  84  86
ATOM     86  CA  LYS    12      37.588  36.107  31.382  1.00  0.00     0.159 C 
BRANCH  86  87
ATOM     87  C   LYS    12      36.957  35.488  30.119  1.00  0.00     0.251 C 
ATOM     88  O   LYS    12      37.237  35.948  29.014  1.00  0.00    -0.271 OA
ATOM     89  N   ASN    13      35.976  34.606  30.308  1.00  0.00    -0.337 N 
ATOM     90  H   ASN    13      35.738  34.283  31.236  1.00 99.99     0.164 HD
BRANCH  89  91
ATOM     91  CA  ASN    13      35.257  33.937  29.210  1.00  0.00     0.169 C 
BRANCH  91  92
ATOM     92  C   ASN    13      34.535  34.952  28.296  1.00  0.00     0.251 C 
ATOM     93  N   MET    14      33.794  35.872  28.916  1.00  0.00    -0.337 N 
ATOM     94  H   MET    14      33.662  35.836  29.915  1.00 99.99     0.164 HD
ATOM     95  O   ASN    13      34.838  35.036  27.108  1.00  0.00    -0.271 OA
BRANCH  93  96
ATOM     96  CA  MET    14      33.078  36.992  28.271  1.00  0.00     0.160 C 
BRANCH  96  97
ATOM     97  C   MET    14      33.981  38.045  27.586  1.00  0.00     0.251 C 
ATOM     98  O   MET    14      33.501  38.823  26.763  1.00  0.00    -0.271 OA
ATOM     99  N   ALA    15      35.260  38.095  27.965  1.00  0.00    -0.338 N 
ATOM    100  H   ALA    15      35.553  37.704  28.844  1.00 99.99     0.164 HD
BRANCH  99 101
ATOM    101  CA  ALA    15      36.287  38.912  27.290  1.00  0.00     0.159 C 
ATOM    102  CB  ALA    15      37.270  39.461  28.329  1.00  0.00     0.034 C 
BRANCH 101 103
ATOM    103  C   ALA    15      37.060  38.161  26.186  1.00  0.00     0.251 C 
ATOM    104  O   ALA    15      37.580  38.779  25.259  1.00  0.00    -0.271 OA
ATOM    105  N   HIS    16      37.199  36.845  26.349  1.00  0.00    -0.337 N 
ATOM    106  H   HIS    16      36.971  36.420  27.233  1.00 99.99     0.164 HD
BRANCH 105 107
ATOM    107  CA  HIS    16      37.838  35.924  25.390  1.00  0.00     0.165 C 
BRANCH 107 108
ATOM    108  C   HIS    16      36.935  35.542  24.195  1.00  0.00     0.251 C 
ATOM    109  O   HIS    16      37.435  35.217  23.119  1.00  0.00    -0.271 OA
ATOM    110  N   ILE    17      35.619  35.525  24.412  1.00  0.00    -0.338 N 
ATOM    111  H   ILE    17      35.260  35.639  25.342  1.00 99.99     0.164 HD
BRANCH 110 112
ATOM    112  CA  ILE    17      34.610  35.120  23.402  1.00  0.00     0.159 C 
BRANCH 112 113
ATOM    113  CB  ILE    17      33.508  34.288  24.113  1.00  0.00     0.029 C 
ATOM    114  CG2 ILE    17      32.295  33.972  23.215  1.00  0.00     0.002 C 
BRANCH 113 115
ATOM    115  CG1 ILE    17      34.115  32.982  24.658  1.00  0.00     0.002 C 
ATOM    116  CD  ILE    17      33.232  32.235  25.670  1.00  0.00     0.000 C 
ENDBRANCH 113 115
ENDBRANCH 112 113
BRANCH 112 117
ATOM    117  C   ILE    17      34.057  36.293  22.559  1.00  0.00     0.251 C 
ATOM    118  O   ILE    17      33.580  36.094  21.442  1.00  0.00    -0.271 OA
ATOM    119  N   ARG    18      34.203  37.522  23.050  1.00  0.00    -0.336 N 
ATOM    120  H   ARG    18      34.890  37.728  23.744  1.00 99.99     0.164 HD
BRANCH 119 121
ATOM    121  CA  ARG    18      33.541  38.707  22.461  1.00  0.00     0.168 C 
BRANCH 121 122
ATOM    122  CB  ARG    18      33.215  39.639  23.629  1.00  0.00     0.035 C 
BRANCH 122 123
ATOM    123  CG  ARG    18      32.490  40.921  23.213  1.00  0.00     0.027 C 
BRANCH 123 124
ATOM    124  CD  ARG    18      32.635  41.989  24.299  1.00  0.00     0.116 C 
BRANCH 124 125
ATOM    125  NE  ARG    18      31.953  41.553  25.524  1.00  0.00    -0.212 N 
ATOM    126  CZ  ARG    18      31.905  42.220  26.679  1.00  0.00     0.666 C 
ATOM    127  NH1 ARG    18      32.578  43.342  26.874  1.00  0.00    -0.235 N 
ATOM    128  NH2 ARG    18      31.026  41.860  27.599  1.00  0.00    -0.235 N 
ATOM    129 2HH1 ARG    18      33.162  43.683  26.133  1.00 99.99     0.174 HD
ATOM    130 1HH1 ARG    18      32.525  43.822  27.742  1.00 99.99     0.174 HD
ATOM    131 2HH2 ARG    18      30.429  41.076  27.425  1.00 99.99     0.174 HD
ATOM    132 1HH2 ARG    18      30.977  42.351  28.461  1.00 99.99     0.174 HD
ATOM    133  HE  ARG    18      31.578  40.627  25.494  1.00 99.99     0.178 HD
ENDBRANCH 124 125
ENDBRANCH 123 124
ENDBRANCH 122 123
ENDBRANCH 121 122
BRANCH 121 134
ATOM    134  C   ARG    18      34.425  39.430  21.428  1.00  0.00     0.206 C 
ATOM    135  O   ARG    18      33.908  39.743  20.330  1.00 99.99    -0.646 OA
ATOM    136  OXT ARG    18      35.563  39.760  21.817  1.00 99.99    -0.646 OA
ENDBRANCH 121 134
ENDBRANCH 119 121
ENDBRANCH 112 117
ENDBRANCH 110 112
ENDBRANCH 107 108
BRANCH 107 137
ATOM    137  CB  HIS    16      38.286  34.682  26.182  1.00  0.00     0.077 C 
BRANCH 137 138
ATOM    138  CG  HIS    16      39.199  33.725  25.402  1.00  0.00     0.057 A 
ATOM    139  CD2 HIS    16      38.808  32.847  24.483  1.00  0.00     0.113 A 
ATOM    140  NE2 HIS    16      39.886  32.387  23.855  1.00  0.00    -0.223 NA
ATOM    141  CE1 HIS    16      40.949  32.965  24.407  1.00  0.00     0.175 A 
ATOM    142  ND1 HIS    16      40.529  33.768  25.380  1.00  0.00    -0.338 N 
ATOM    143  HD1 HIS    16      41.115  34.219  26.054  1.00 99.99     0.167 HD
ENDBRANCH 137 138
ENDBRANCH 107 137
ENDBRANCH 105 107
ENDBRANCH 101 103
ENDBRANCH  99 101
ENDBRANCH  96  97
BRANCH  96 144
ATOM    144  CB  MET    14      32.141  37.567  29.346  1.00  0.00     0.043 C 
BRANCH 144 145
ATOM    145  CG  MET    14      31.353  38.852  29.057  1.00  0.00     0.060 C 
BRANCH 145 146
ATOM    146  SD  MET    14      30.284  38.855  27.570  1.00  0.00    -0.139 SA
ATOM    147  CE  MET    14      29.149  37.524  27.901  1.00  0.00     0.069 C 
ENDBRANCH 145 146
ENDBRANCH 144 145
ENDBRANCH  96 144
ENDBRANCH  93  96
ENDBRANCH  91  92
BRANCH  91 148
ATOM    148  CB  ASN    13      34.268  32.901  29.775  1.00  0.00     0.119 C 
BRANCH 148 149
ATOM    149  CG  ASN    13      34.893  31.784  30.626  1.00  0.00     0.230 C 
ATOM    150  ND2 ASN    13      34.047  30.910  31.132  1.00  0.00    -0.369 N 
ATOM    151 2HD2 ASN    13      33.070  30.998  30.975  1.00 99.99     0.159 HD
ATOM    152 1HD2 ASN    13      34.441  30.183  31.684  1.00 99.99     0.159 HD
ATOM    153  OD1 ASN    13      36.082  31.692  30.893  1.00  0.00    -0.273 OA
ENDBRANCH 148 149
ENDBRANCH  91 148
ENDBRANCH  89  91
ENDBRANCH  86  87
BRANCH  86 154
ATOM    154  CB  LYS    12      38.506  35.093  32.085  1.00  0.00     0.032 C 
BRANCH 154 155
ATOM    155  CG  LYS    12      39.671  34.692  31.174  1.00  0.00     0.004 C 
BRANCH 155 156
ATOM    156  CD  LYS    12      40.545  33.584  31.761  1.00  0.00     0.032 C 
BRANCH 156 157
ATOM    157  CE  LYS    12      41.572  33.156  30.711  1.00  0.00     0.206 C 
BRANCH 157 158
ATOM    158  NZ  LYS    12      42.452  32.088  31.206  1.00  0.00    -0.064 N 
ATOM    159  HZ3 LYS    12      41.901  31.294  31.464  1.00 99.99     0.275 HD
ATOM    160  HZ2 LYS    12      42.958  32.419  32.002  1.00 99.99     0.275 HD
ATOM    161  HZ1 LYS    12      43.094  31.829  30.484  1.00 99.99     0.275 HD
ENDBRANCH 157 158
ENDBRANCH 156 157
ENDBRANCH 155 156
ENDBRANCH 154 155
ENDBRANCH  86 154
ENDBRANCH  84  86
ENDBRANCH  73  82
ENDBRANCH  71  73
ENDBRANCH  64  69
ENDBRANCH  61  64
ENDBRANCH  55  60
ENDBRANCH  53  55
ENDBRANCH  50  51
BRANCH  50 162
ATOM    162  CB  LYS     8      38.046  35.571  38.160  1.00  0.00     0.032 C 
BRANCH 162 163
ATOM    163  CG  LYS     8      39.388  35.682  37.426  1.00  0.00     0.004 C 
BRANCH 163 164
ATOM    164  CD  LYS     8      40.571  35.205  38.270  1.00  0.00     0.032 C 
BRANCH 164 165
ATOM    165  CE  LYS     8      41.869  35.312  37.461  1.00  0.00     0.206 C 
BRANCH 165 166
ATOM    166  NZ  LYS     8      43.046  34.891  38.232  1.00  0.00    -0.064 N 
ATOM    167  HZ3 LYS     8      42.941  33.938  38.518  1.00 99.99     0.275 HD
ATOM    168  HZ1 LYS     8      43.863  34.975  37.660  1.00 99.99     0.275 HD
ATOM    169  HZ2 LYS     8      43.148  35.474  39.039  1.00 99.99     0.275 HD
ENDBRANCH 165 166
ENDBRANCH 164 165
ENDBRANCH 163 164
ENDBRANCH 162 163
ENDBRANCH  50 162
ENDBRANCH  48  50
ENDBRANCH  44  46
ENDBRANCH  42  44
ENDBRANCH  32  40
ENDBRANCH  29  32
ENDBRANCH  27  28
BRANCH  27 170
ATOM    170  CB  LEU     5      36.120  31.460  41.833  1.00  0.00     0.032 C 
BRANCH 170 171
ATOM    171  CG  LEU     5      37.384  31.249  42.676  1.00  0.00     0.002 C 
ATOM    172  CD2 LEU     5      38.651  31.276  41.812  1.00  0.00     0.000 C 
ATOM    173  CD1 LEU     5      37.292  29.906  43.403  1.00  0.00     0.000 C 
ENDBRANCH 170 171
ENDBRANCH  27 170
ENDBRANCH  24  27
ENDBRANCH  22  23
BRANCH  22 174
ATOM    174  CB  LYS     4      36.416  36.380  44.162  1.00  0.00     0.032 C 
BRANCH 174 175
ATOM    175  CG  LYS     4      37.648  37.105  43.602  1.00  0.00     0.004 C 
BRANCH 175 176
ATOM    176  CD  LYS     4      38.703  37.395  44.676  1.00  0.00     0.032 C 
BRANCH 176 177
ATOM    177  CE  LYS     4      39.903  38.133  44.072  1.00  0.00     0.206 C 
BRANCH 177 178
ATOM    178  NZ  LYS     4      40.922  38.479  45.079  1.00  0.00    -0.064 N 
ATOM    179  HZ1 LYS     4      41.680  38.956  44.631  1.00 99.99     0.275 HD
ATOM    180  HZ2 LYS     4      40.525  39.079  45.772  1.00 99.99     0.275 HD
ATOM    181  HZ3 LYS     4      41.271  37.648  45.511  1.00 99.99     0.275 HD
ENDBRANCH 177 178
ENDBRANCH 176 177
ENDBRANCH 175 176
ENDBRANCH 174 175
ENDBRANCH  22 174
ENDBRANCH  20  22
ENDBRANCH  14  18
ENDBRANCH  10  11
BRANCH  10 182
ATOM    182  CB  LEU     2      31.941  30.473  45.482  1.00  0.00     0.032 C 
BRANCH 182 183
ATOM    183  CG  LEU     2      31.108  29.895  44.326  1.00  0.00     0.002 C 
ATOM    184  CD2 LEU     2      29.881  29.172  44.884  1.00  0.00     0.000 C 
ATOM    185  CD1 LEU     2      31.927  28.948  43.441  1.00  0.00     0.000 C 
ENDBRANCH 182 183
ENDBRANCH  10 182
ENDBRANCH   7  10
ENDBRANCH   5   6
BRANCH   5 186
ATOM    186  CB  PHE     1      37.429  32.765  46.767  1.00  0.00     0.064 C 
BRANCH 186 187
ATOM    187  CG  PHE     1      38.352  33.569  47.688  1.00  0.00    -0.044 A 
ATOM    188  CD1 PHE     1      39.217  32.898  48.530  1.00  0.00     0.008 A 
ATOM    189  CE1 PHE     1      40.024  33.606  49.399  1.00  0.00     0.001 A 
ATOM    190  CZ  PHE     1      39.965  34.994  49.436  1.00  0.00     0.000 A 
ATOM    191  CE2 PHE     1      39.088  35.677  48.586  1.00  0.00     0.001 A 
ATOM    192  CD2 PHE     1      38.284  34.955  47.703  1.00  0.00     0.008 A 
ENDBRANCH 186 187
ENDBRANCH   5 186
ENDBRANCH   1   5
TORSDOF 80
