REMARK WARNING: 32 MAX_TORS EXCEEDED!!!
REMARK  49 active torsions:
REMARK  status: ('A' for Active; 'I' for Inactive)
REMARK    1  A    between atoms: N_1  and  CA_2 
REMARK    2  A    between atoms: CA_2  and  CB_5 
REMARK    3  A    between atoms: CA_2  and  C_3 
REMARK       I    between atoms: C_3  and  N_11 
REMARK    4  A    between atoms: CB_5  and  OG_6 
REMARK    5  A    between atoms: N_11  and  CA_12 
REMARK    6  A    between atoms: CA_12  and  CB_15 
REMARK    7  A    between atoms: CA_12  and  C_13 
REMARK       I    between atoms: C_13  and  N_19 
REMARK    8  A    between atoms: CB_15  and  SG_16 
REMARK    9  A    between atoms: N_19  and  CA_20 
REMARK   10  A    between atoms: CA_20  and  CB_23 
REMARK   11  A    between atoms: CA_20  and  C_21 
REMARK       I    between atoms: C_21  and  N_30 
REMARK   12  A    between atoms: CB_23  and  CG_24 
REMARK       I    between atoms: CG_24  and  ND2_26 
REMARK   13  A    between atoms: N_30  and  CA_31 
REMARK   14  A    between atoms: CA_31  and  CB_34 
REMARK   15  A    between atoms: CA_31  and  C_32 
REMARK       I    between atoms: C_32  and  N_38 
REMARK   16  A    between atoms: CB_34  and  SG_35 
REMARK   17  A    between atoms: N_38  and  CA_39 
REMARK   18  A    between atoms: CA_39  and  CB_42 
REMARK   19  A    between atoms: CA_39  and  C_40 
REMARK       I    between atoms: C_40  and  N_46 
REMARK   20  A    between atoms: N_46  and  CA_47 
REMARK   21  A    between atoms: CA_47  and  C_48 
REMARK   22  A    between atoms: CA_47  and  CB_50 
REMARK       I    between atoms: C_48  and  N_54 
REMARK   23  A    between atoms: CB_50  and  SG_51 
REMARK   24  A    between atoms: N_54  and  CA_55 
REMARK   25  A    between atoms: CA_55  and  C_56 
REMARK       I    between atoms: C_56  and  N_59 
REMARK   26  A    between atoms: N_59  and  CA_60 
REMARK   27  A    between atoms: CA_60  and  CB_63 
REMARK   28  A    between atoms: CA_60  and  C_61 
REMARK       I    between atoms: C_61  and  N_67 
REMARK   29  A    between atoms: N_67  and  CA_68 
REMARK   30  A    between atoms: CA_68  and  C_69 
REMARK   31  A    between atoms: CA_68  and  CB_71 
REMARK       I    between atoms: C_69  and  N_75 
REMARK   32  A    between atoms: CB_71  and  SG_72 
REMARK   33  A    between atoms: N_75  and  CA_76 
REMARK   34  A    between atoms: CA_76  and  C_77 
REMARK   35  A    between atoms: CA_76  and  CB_79 
REMARK       I    between atoms: C_77  and  N_83 
REMARK   36  A    between atoms: CB_79  and  SG_80 
REMARK   37  A    between atoms: N_83  and  CA_84 
REMARK   38  A    between atoms: CA_84  and  C_85 
REMARK   39  A    between atoms: CA_84  and  CB_87 
REMARK       I    between atoms: C_85  and  N_91 
REMARK   40  A    between atoms: CB_87  and  OG_88 
REMARK   41  A    between atoms: N_91  and  CA_92 
REMARK   42  A    between atoms: CA_92  and  C_93 
REMARK   43  A    between atoms: CA_92  and  CB_95 
REMARK       I    between atoms: C_93  and  N_99 
REMARK   44  A    between atoms: CB_95  and  SG_96 
REMARK   45  A    between atoms: N_99  and  CA_100 
REMARK   46  A    between atoms: CA_100  and  C_101 
REMARK   47  A    between atoms: CA_100  and  CB_103 
REMARK       I    between atoms: C_101  and  N_107 
REMARK   48  A    between atoms: CB_103  and  OG_104 
REMARK   49  A    between atoms: CA_108  and  C_109 
ROOT
ATOM      1  N   SER     1      24.768  26.954  39.623  1.00  0.00    -0.055 N 
ATOM      2  H1  SER     1      24.655  26.835  38.634  1.00 99.99     0.276 HD
ATOM      3  H2  SER     1      25.019  26.089  40.036  1.00 99.99     0.276 HD
ATOM      4  H3  SER     1      23.921  27.211  40.028  1.00 99.99     0.276 HD
ENDROOT
BRANCH   1   5
ATOM      5  CA  SER     1      25.835  27.954  39.829  1.00  0.00     0.284 C 
BRANCH   5   6
ATOM      6  CB  SER     1      26.978  27.318  40.647  1.00  0.00     0.177 C 
BRANCH   6   7
ATOM      7  OG  SER     1      27.200  25.961  40.233  1.00  0.00    -0.380 OA
ATOM      8  HG  SER     1      27.898  25.525  40.800  1.00 99.99     0.211 HD
ENDBRANCH   6   7
ENDBRANCH   5   6
BRANCH   5   9
ATOM      9  C   SER     1      26.340  28.472  38.463  1.00  0.00     0.261 C 
ATOM     10  O   SER     1      25.779  28.101  37.430  1.00  0.00    -0.270 OA
ATOM     11  N   CYS     2      27.235  29.459  38.458  1.00  0.00    -0.337 N 
ATOM     12  H   CYS     2      27.584  29.900  39.284  1.00 99.99     0.164 HD
BRANCH  11  13
ATOM     13  CA  CYS     2      27.872  29.914  37.209  1.00  0.00     0.170 C 
BRANCH  13  14
ATOM     14  CB  CYS     2      27.270  31.255  36.777  1.00  0.00     0.085 C 
BRANCH  14  15
ATOM     15  SG  CYS     2      27.520  31.617  35.001  1.00  0.00    -0.165 SA
ATOM     16  HG  CYS     2      28.154  30.488  34.701  1.00 99.99     0.102 HD
ENDBRANCH  14  15
ENDBRANCH  13  14
BRANCH  13  17
ATOM     17  C   CYS     2      29.383  30.041  37.437  1.00  0.00     0.252 C 
ATOM     18  O   CYS     2      29.822  30.395  38.530  1.00  0.00    -0.271 OA
ATOM     19  N   ASN     3      30.143  29.680  36.412  1.00  0.00    -0.337 N 
ATOM     20  H   ASN     3      29.757  29.296  35.567  1.00 99.99     0.164 HD
BRANCH  19  21
ATOM     21  CA  ASN     3      31.615  29.729  36.423  1.00  0.00     0.169 C 
BRANCH  21  22
ATOM     22  CB  ASN     3      32.076  28.293  36.141  1.00  0.00     0.119 C 
BRANCH  22  23
ATOM     23  CG  ASN     3      33.574  28.068  35.928  1.00  0.00     0.230 C 
ATOM     24  OD1 ASN     3      34.442  28.835  36.317  1.00  0.00    -0.273 OA
ATOM     25  ND2 ASN     3      33.875  26.980  35.254  1.00  0.00    -0.369 N 
ATOM     26 2HD2 ASN     3      33.160  26.350  34.968  1.00 99.99     0.159 HD
ATOM     27 1HD2 ASN     3      34.841  26.793  35.098  1.00 99.99     0.159 HD
ENDBRANCH  22  23
ENDBRANCH  21  22
BRANCH  21  28
ATOM     28  C   ASN     3      32.063  30.759  35.373  1.00  0.00     0.251 C 
ATOM     29  O   ASN     3      31.914  30.532  34.174  1.00  0.00    -0.271 OA
ATOM     30  N   CYS     4      32.338  31.965  35.865  1.00  0.00    -0.337 N 
ATOM     31  H   CYS     4      32.411  32.130  36.848  1.00 99.99     0.164 HD
BRANCH  30  32
ATOM     32  CA  CYS     4      32.615  33.136  35.006  1.00  0.00     0.170 C 
BRANCH  32  33
ATOM     33  CB  CYS     4      31.629  34.269  35.305  1.00  0.00     0.085 C 
BRANCH  33  34
ATOM     34  SG  CYS     4      29.892  33.877  34.896  1.00  0.00    -0.165 SA
ATOM     35  HG  CYS     4      30.115  32.617  34.536  1.00 99.99     0.102 HD
ENDBRANCH  33  34
ENDBRANCH  32  33
BRANCH  32  36
ATOM     36  C   CYS     4      34.035  33.691  35.161  1.00  0.00     0.252 C 
ATOM     37  O   CYS     4      34.453  34.092  36.246  1.00  0.00    -0.271 OA
ATOM     38  N   VAL     5      34.656  33.892  34.005  1.00  0.00    -0.337 N 
ATOM     39  H   VAL     5      34.252  33.580  33.143  1.00 99.99     0.164 HD
BRANCH  38  40
ATOM     40  CA  VAL     5      36.008  34.485  33.918  1.00  0.00     0.159 C 
BRANCH  40  41
ATOM     41  CB  VAL     5      36.971  33.579  33.118  1.00  0.00     0.029 C 
ATOM     42  CG2 VAL     5      37.047  32.162  33.700  1.00  0.00     0.002 C 
ATOM     43  CG1 VAL     5      38.391  34.159  33.074  1.00  0.00     0.002 C 
ENDBRANCH  40  41
BRANCH  40  44
ATOM     44  C   VAL     5      35.891  35.891  33.298  1.00  0.00     0.251 C 
ATOM     45  O   VAL     5      35.699  36.029  32.090  1.00  0.00    -0.271 OA
ATOM     46  N   CYS     6      35.822  36.882  34.184  1.00  0.00    -0.337 N 
ATOM     47  H   CYS     6      35.769  36.701  35.166  1.00 99.99     0.164 HD
BRANCH  46  48
ATOM     48  CA  CYS     6      35.776  38.313  33.813  1.00  0.00     0.170 C 
BRANCH  48  49
ATOM     49  C   CYS     6      37.085  38.801  33.171  1.00  0.00     0.252 C 
ATOM     50  N   GLY     7      36.911  39.464  32.024  1.00  0.00    -0.336 N 
ATOM     51  H   GLY     7      36.005  39.628  31.613  1.00 99.99     0.164 HD
ATOM     52  O   CYS     6      38.171  38.628  33.724  1.00  0.00    -0.271 OA
BRANCH  50  53
ATOM     53  CA  GLY     7      38.011  40.039  31.226  1.00  0.00     0.189 C 
BRANCH  53  54
ATOM     54  C   GLY     7      37.475  40.452  29.850  1.00  0.00     0.253 C 
ATOM     55  O   GLY     7      36.316  40.842  29.725  1.00  0.00    -0.270 OA
ATOM     56  N   VAL     8      38.345  40.353  28.848  1.00  0.00    -0.337 N 
ATOM     57  H   VAL     8      39.316  40.202  29.018  1.00 99.99     0.164 HD
BRANCH  56  58
ATOM     58  CA  VAL     8      37.974  40.554  27.429  1.00  0.00     0.159 C 
BRANCH  58  59
ATOM     59  CB  VAL     8      39.224  40.794  26.551  1.00  0.00     0.029 C 
ATOM     60  CG2 VAL     8      40.063  41.972  27.063  1.00  0.00     0.002 C 
ATOM     61  CG1 VAL     8      38.851  41.070  25.089  1.00  0.00     0.002 C 
ENDBRANCH  58  59
BRANCH  58  62
ATOM     62  C   VAL     8      37.114  39.358  26.964  1.00  0.00     0.251 C 
ATOM     63  O   VAL     8      35.893  39.464  26.873  1.00  0.00    -0.271 OA
ATOM     64  N   CYS     9      37.768  38.224  26.705  1.00  0.00    -0.337 N 
ATOM     65  H   CYS     9      38.763  38.183  26.683  1.00 99.99     0.164 HD
BRANCH  64  66
ATOM     66  CA  CYS     9      37.100  36.957  26.345  1.00  0.00     0.170 C 
BRANCH  66  67
ATOM     67  C   CYS     9      36.439  36.327  27.586  1.00  0.00     0.252 C 
ATOM     68  N   CYS    10      35.237  36.806  27.897  1.00  0.00    -0.337 N 
ATOM     69  H   CYS    10      34.856  37.610  27.438  1.00 99.99     0.164 HD
ATOM     70  O   CYS     9      37.056  35.552  28.319  1.00  0.00    -0.271 OA
BRANCH  68  71
ATOM     71  CA  CYS    10      34.448  36.273  29.024  1.00  0.00     0.170 C 
BRANCH  71  72
ATOM     72  C   CYS    10      33.909  34.872  28.706  1.00  0.00     0.252 C 
ATOM     73  N   SER    11      34.191  33.960  29.629  1.00  0.00    -0.336 N 
ATOM     74  H   SER    11      34.767  34.176  30.415  1.00 99.99     0.164 HD
ATOM     75  O   CYS    10      33.210  34.660  27.716  1.00  0.00    -0.271 OA
BRANCH  73  76
ATOM     76  CA  SER    11      33.703  32.571  29.545  1.00  0.00     0.189 C 
BRANCH  76  77
ATOM     77  C   SER    11      32.649  32.338  30.632  1.00  0.00     0.254 C 
ATOM     78  N   CYS    12      31.403  32.305  30.165  1.00  0.00    -0.337 N 
ATOM     79  H   CYS    12      31.202  32.486  29.203  1.00 99.99     0.164 HD
ATOM     80  O   SER    11      32.938  32.506  31.819  1.00  0.00    -0.270 OA
BRANCH  78  81
ATOM     81  CA  CYS    12      30.229  31.974  30.998  1.00  0.00     0.170 C 
BRANCH  81  82
ATOM     82  C   CYS    12      29.974  30.462  30.907  1.00  0.00     0.252 C 
ATOM     83  N   SER    13      30.635  29.765  31.820  1.00  0.00    -0.336 N 
ATOM     84  H   SER    13      31.138  30.216  32.564  1.00 99.99     0.164 HD
ATOM     85  O   CYS    12      29.226  29.960  30.068  1.00  0.00    -0.271 OA
BRANCH  83  86
ATOM     86  CA  SER    13      30.731  28.293  31.823  1.00  0.00     0.189 C 
BRANCH  86  87
ATOM     87  C   SER    13      29.950  27.658  32.983  1.00  0.00     0.257 C 
ATOM     88  N   PRO    14      29.536  26.398  32.804  1.00  0.00    -0.311 N 
ATOM     89  CD  PRO    14      29.019  25.853  31.533  1.00  0.00     0.105 C 
ATOM     90  CA  PRO    14      29.197  25.510  33.934  1.00  0.00     0.171 C 
ATOM     91  CG  PRO    14      28.617  24.416  31.868  1.00  0.00     0.027 C 
ATOM     92  CB  PRO    14      28.222  24.490  33.344  1.00  0.00     0.035 C 
ATOM     93  O   SER    13      29.624  28.336  33.961  1.00  0.00    -0.270 OA
BRANCH  90  94
ATOM     94  C   PRO    14      30.449  24.839  34.529  1.00  0.00     0.207 C 
ATOM     95  OXT PRO    14      31.285  24.354  33.732  1.00 99.99    -0.646 OA
ATOM     96  O   PRO    14      30.649  24.997  35.750  1.00 99.99    -0.646 OA
ENDBRANCH  90  94
ENDBRANCH  86  87
BRANCH  86  97
ATOM     97  CB  SER    13      32.199  27.877  31.966  1.00  0.00     0.169 C 
BRANCH  97  98
ATOM     98  OG  SER    13      32.956  28.369  30.863  1.00  0.00    -0.380 OA
ATOM     99  HG  SER    13      33.925  28.176  30.994  1.00 99.99     0.211 HD
ENDBRANCH  97  98
ENDBRANCH  86  97
ENDBRANCH  83  86
ENDBRANCH  81  82
BRANCH  81 100
ATOM    100  CB  CYS    12      29.002  32.766  30.532  1.00  0.00     0.085 C 
BRANCH 100 101
ATOM    101  SG  CYS    12      29.182  34.582  30.661  1.00  0.00    -0.165 SA
ATOM    102  HG  CYS    12      27.968  34.861  30.190  1.00 99.99     0.102 HD
ENDBRANCH 100 101
ENDBRANCH  81 100
ENDBRANCH  78  81
ENDBRANCH  76  77
BRANCH  76 103
ATOM    103  CB  SER    11      34.850  31.570  29.712  1.00  0.00     0.169 C 
BRANCH 103 104
ATOM    104  OG  SER    11      34.385  30.273  29.335  1.00  0.00    -0.380 OA
ATOM    105  HG  SER    11      35.101  29.593  29.468  1.00 99.99     0.211 HD
ENDBRANCH 103 104
ENDBRANCH  76 103
ENDBRANCH  73  76
ENDBRANCH  71  72
BRANCH  71 106
ATOM    106  CB  CYS    10      33.295  37.213  29.385  1.00  0.00     0.085 C 
BRANCH 106 107
ATOM    107  SG  CYS    10      32.432  36.698  30.917  1.00  0.00    -0.165 SA
ATOM    108  HG  CYS    10      33.232  35.667  31.176  1.00 99.99     0.102 HD
ENDBRANCH 106 107
ENDBRANCH  71 106
ENDBRANCH  68  71
ENDBRANCH  66  67
BRANCH  66 109
ATOM    109  CB  CYS     9      38.132  35.989  25.749  1.00  0.00     0.085 C 
BRANCH 109 110
ATOM    110  SG  CYS     9      39.163  36.681  24.403  1.00  0.00    -0.165 SA
ATOM    111  HG  CYS     9      39.874  35.574  24.203  1.00 99.99     0.102 HD
ENDBRANCH 109 110
ENDBRANCH  66 109
ENDBRANCH  64  66
ENDBRANCH  58  62
ENDBRANCH  56  58
ENDBRANCH  53  54
ENDBRANCH  50  53
ENDBRANCH  48  49
BRANCH  48 112
ATOM    112  CB  CYS     6      35.479  39.175  35.045  1.00  0.00     0.085 C 
BRANCH 112 113
ATOM    113  SG  CYS     6      33.838  38.869  35.793  1.00  0.00    -0.165 SA
ATOM    114  HG  CYS     6      33.960  39.781  36.754  1.00 99.99     0.102 HD
ENDBRANCH 112 113
ENDBRANCH  48 112
ENDBRANCH  46  48
ENDBRANCH  40  44
ENDBRANCH  38  40
ENDBRANCH  32  36
ENDBRANCH  30  32
ENDBRANCH  21  28
ENDBRANCH  19  21
ENDBRANCH  13  17
ENDBRANCH  11  13
ENDBRANCH   5   9
ENDBRANCH   1   5
TORSDOF 49
