REMARK  16 active torsions:
REMARK  status: ('A' for Active; 'I' for Inactive)
REMARK    1  A    between atoms: N_1  and  CA_2 
REMARK    2  A    between atoms: CA_2  and  C_3 
REMARK       I    between atoms: C_3  and  N_9 
REMARK    3  A    between atoms: N_9  and  CA_10 
REMARK    4  A    between atoms: CA_10  and  CB_13 
REMARK    5  A    between atoms: CA_10  and  C_11 
REMARK       I    between atoms: C_11  and  N_18 
REMARK    6  A    between atoms: CB_13  and  CG_14 
REMARK    7  A    between atoms: CG_14  and  SD_15 
REMARK    8  A    between atoms: N_18  and  CA_19 
REMARK    9  A    between atoms: CA_19  and  CB_22 
REMARK   10  A    between atoms: CA_19  and  C_20 
REMARK       I    between atoms: C_20  and  N_26 
REMARK   11  A    between atoms: N_26  and  CA_27 
REMARK   12  A    between atoms: CA_27  and  C_28 
REMARK       I    between atoms: C_28  and  N_31 
REMARK   13  A    between atoms: N_31  and  CA_32 
REMARK   14  A    between atoms: CA_32  and  CB_35 
REMARK   15  A    between atoms: CA_32  and  C_33 
REMARK   16  A    between atoms: CB_35  and  OG1_36 
ROOT
ATOM      1  N   ALA     1      24.451  23.971  21.384  1.00  0.00    -0.058 N 
ATOM      2  H1  ALA     1      24.865  24.680  21.955  1.00 99.99     0.276 HD
ATOM      3  H2  ALA     1      25.171  23.577  20.836  1.00 99.99     0.276 HD
ATOM      4  H3  ALA     1      23.835  24.395  20.737  1.00 99.99     0.276 HD
ENDROOT
BRANCH   1   5
ATOM      5  CA  ALA     1      23.800  22.984  22.269  1.00  0.00     0.255 C 
ATOM      6  CB  ALA     1      24.427  21.598  22.058  1.00  0.00     0.042 C 
BRANCH   5   7
ATOM      7  C   ALA     1      23.994  23.432  23.731  1.00  0.00     0.259 C 
ATOM      8  N   MET     2      23.088  23.054  24.637  1.00  0.00    -0.338 N 
ATOM      9  H   MET     2      22.458  22.301  24.467  1.00 99.99     0.164 HD
ATOM     10  O   ALA     1      25.045  23.991  24.036  1.00  0.00    -0.271 OA
BRANCH   8  11
ATOM     11  CA  MET     2      22.916  23.707  25.961  1.00  0.00     0.160 C 
BRANCH  11  12
ATOM     12  CB  MET     2      21.855  22.982  26.803  1.00  0.00     0.043 C 
BRANCH  12  13
ATOM     13  CG  MET     2      20.491  22.847  26.114  1.00  0.00     0.060 C 
BRANCH  13  14
ATOM     14  SD  MET     2      19.842  24.353  25.287  1.00  0.00    -0.139 SA
ATOM     15  CE  MET     2      19.555  25.449  26.660  1.00  0.00     0.069 C 
ENDBRANCH  13  14
ENDBRANCH  12  13
ENDBRANCH  11  12
BRANCH  11  16
ATOM     16  C   MET     2      24.142  24.011  26.853  1.00  0.00     0.251 C 
ATOM     17  O   MET     2      24.071  24.895  27.697  1.00  0.00    -0.271 OA
ATOM     18  N   VAL     3      25.227  23.254  26.694  1.00  0.00    -0.338 N 
ATOM     19  H   VAL     3      25.230  22.464  26.084  1.00 99.99     0.164 HD
BRANCH  18  20
ATOM     20  CA  VAL     3      26.506  23.484  27.410  1.00  0.00     0.159 C 
BRANCH  20  21
ATOM     21  CB  VAL     3      26.989  22.182  28.086  1.00  0.00     0.029 C 
ATOM     22  CG1 VAL     3      26.046  21.774  29.223  1.00  0.00     0.002 C 
ATOM     23  CG2 VAL     3      27.171  21.018  27.101  1.00  0.00     0.002 C 
ENDBRANCH  20  21
BRANCH  20  24
ATOM     24  C   VAL     3      27.615  24.131  26.543  1.00  0.00     0.251 C 
ATOM     25  O   VAL     3      28.809  23.912  26.763  1.00  0.00    -0.271 OA
ATOM     26  N   GLY     4      27.181  24.922  25.557  1.00  0.00    -0.336 N 
ATOM     27  H   GLY     4      26.203  24.968  25.306  1.00 99.99     0.164 HD
BRANCH  26  28
ATOM     28  CA  GLY     4      28.055  25.628  24.592  1.00  0.00     0.189 C 
BRANCH  28  29
ATOM     29  C   GLY     4      27.240  26.466  23.591  1.00  0.00     0.253 C 
ATOM     30  N   THR     5      26.297  27.201  24.168  1.00  0.00    -0.334 N 
ATOM     31  H   THR     5      26.119  27.070  25.144  1.00 99.99     0.164 HD
ATOM     32  O   GLY     4      27.323  26.263  22.380  1.00  0.00    -0.270 OA
BRANCH  30  33
ATOM     33  CA  THR     5      25.376  28.194  23.553  1.00  0.00     0.195 C 
BRANCH  33  34
ATOM     34  CB  THR     5      24.169  27.594  22.808  1.00  0.00     0.141 C 
ATOM     35  CG2 THR     5      24.471  27.221  21.359  1.00  0.00     0.034 C 
BRANCH  34  36
ATOM     36  OG1 THR     5      23.589  26.526  23.563  1.00  0.00    -0.382 OA
ATOM     37  HG1 THR     5      22.743  26.220  23.127  1.00 99.99     0.210 HD
ENDBRANCH  34  36
ENDBRANCH  33  34
BRANCH  33  38
ATOM     38  C   THR     5      24.741  29.009  24.683  1.00  0.00     0.209 C 
ATOM     39  OXT THR     5      24.335  28.334  25.655  1.00 99.99    -0.646 OA
ATOM     40  O   THR     5      24.838  30.253  24.631  1.00 99.99    -0.646 OA
ENDBRANCH  33  38
ENDBRANCH  30  33
ENDBRANCH  28  29
ENDBRANCH  26  28
ENDBRANCH  20  24
ENDBRANCH  18  20
ENDBRANCH  11  16
ENDBRANCH   8  11
ENDBRANCH   5   7
ENDBRANCH   1   5
TORSDOF 16
