REMARK  28 active torsions:
REMARK  status: ('A' for Active; 'I' for Inactive)
REMARK    1  A    between atoms: N_1  and  CA_2 
REMARK    2  A    between atoms: CA_2  and  CB_5 
REMARK    3  A    between atoms: CA_2  and  C_3 
REMARK       I    between atoms: C_3  and  N_12 
REMARK    4  A    between atoms: CB_5  and  CG_6 
REMARK    5  A    between atoms: N_12  and  CA_13 
REMARK    6  A    between atoms: CA_13  and  CB_16 
REMARK    7  A    between atoms: CA_13  and  C_14 
REMARK       I    between atoms: C_14  and  N_21 
REMARK    8  A    between atoms: CB_16  and  CG_17 
REMARK    9  A    between atoms: N_21  and  CA_22 
REMARK   10  A    between atoms: CA_22  and  CB_25 
REMARK   11  A    between atoms: CA_22  and  C_23 
REMARK       I    between atoms: C_23  and  N_30 
REMARK   12  A    between atoms: CB_25  and  CG_26 
REMARK   13  A    between atoms: N_30  and  CA_31 
REMARK   14  A    between atoms: CA_31  and  CB_34 
REMARK   15  A    between atoms: CA_31  and  C_32 
REMARK       I    between atoms: C_32  and  N_38 
REMARK   16  A    between atoms: N_38  and  CA_39 
REMARK   17  A    between atoms: CA_39  and  CB_42 
REMARK   18  A    between atoms: CA_39  and  C_40 
REMARK       I    between atoms: C_40  and  N_47 
REMARK   19  A    between atoms: CB_42  and  CG_43 
REMARK   20  A    between atoms: N_47  and  CA_48 
REMARK   21  A    between atoms: CA_48  and  C_49 
REMARK   22  A    between atoms: CA_48  and  CB_51 
REMARK       I    between atoms: C_49  and  N_56 
REMARK   23  A    between atoms: CB_51  and  CG_52 
REMARK   24  A    between atoms: N_56  and  CA_57 
REMARK   25  A    between atoms: CA_57  and  C_58 
REMARK   26  A    between atoms: CA_57  and  CB_60 
REMARK   27  A    between atoms: CB_60  and  CG_61 
REMARK   28  A    between atoms: CG_61  and  CD_62 
ROOT
ATOM      1  N   LEU     1      23.312  26.237  29.940  1.00  0.00    -0.058 N 
ATOM      2  H1  LEU     1      23.985  26.826  30.389  1.00 99.99     0.276 HD
ATOM      3  H2  LEU     1      22.421  26.411  30.326  1.00 99.99     0.276 HD
ATOM      4  H3  LEU     1      23.509  25.288  30.187  1.00 99.99     0.276 HD
ENDROOT
BRANCH   1   5
ATOM      5  CA  LEU     1      23.343  26.439  28.468  1.00  0.00     0.255 C 
BRANCH   5   6
ATOM      6  CB  LEU     1      21.952  26.728  27.879  1.00  0.00     0.040 C 
BRANCH   6   7
ATOM      7  CG  LEU     1      21.089  25.478  27.655  1.00  0.00     0.002 C 
ATOM      8  CD1 LEU     1      19.708  25.900  27.148  1.00  0.00     0.000 C 
ATOM      9  CD2 LEU     1      21.726  24.517  26.643  1.00  0.00     0.000 C 
ENDBRANCH   6   7
ENDBRANCH   5   6
BRANCH   5  10
ATOM     10  C   LEU     1      24.342  27.476  27.907  1.00  0.00     0.259 C 
ATOM     11  O   LEU     1      25.146  27.128  27.043  1.00  0.00    -0.271 OA
ATOM     12  N   LEU     2      24.385  28.683  28.484  1.00  0.00    -0.338 N 
ATOM     13  H   LEU     2      23.715  28.965  29.170  1.00 99.99     0.164 HD
BRANCH  12  14
ATOM     14  CA  LEU     2      25.345  29.737  28.068  1.00  0.00     0.159 C 
BRANCH  14  15
ATOM     15  CB  LEU     2      25.115  31.022  28.876  1.00  0.00     0.032 C 
BRANCH  15  16
ATOM     16  CG  LEU     2      23.795  31.718  28.527  1.00  0.00     0.002 C 
ATOM     17  CD2 LEU     2      23.832  32.298  27.108  1.00  0.00     0.000 C 
ATOM     18  CD1 LEU     2      23.522  32.840  29.530  1.00  0.00     0.000 C 
ENDBRANCH  15  16
ENDBRANCH  14  15
BRANCH  14  19
ATOM     19  C   LEU     2      26.801  29.260  28.201  1.00  0.00     0.251 C 
ATOM     20  N   ASP     3      27.081  28.779  29.407  1.00  0.00    -0.337 N 
ATOM     21  H   ASP     3      26.474  29.016  30.164  1.00 99.99     0.164 HD
ATOM     22  O   LEU     2      27.529  29.136  27.224  1.00  0.00    -0.271 OA
BRANCH  20  23
ATOM     23  CA  ASP     3      28.218  27.925  29.808  1.00  0.00     0.170 C 
BRANCH  23  24
ATOM     24  CB  ASP     3      27.822  27.250  31.139  1.00  0.00     0.129 C 
BRANCH  24  25
ATOM     25  CG  ASP     3      26.351  26.804  31.199  1.00  0.00     0.188 C 
ATOM     26  OD2 ASP     3      26.085  25.681  30.729  1.00  0.00    -0.647 OA
ATOM     27  OD1 ASP     3      25.492  27.675  31.474  1.00  0.00    -0.647 OA
ENDBRANCH  24  25
ENDBRANCH  23  24
BRANCH  23  28
ATOM     28  C   ASP     3      28.714  26.956  28.706  1.00  0.00     0.251 C 
ATOM     29  O   ASP     3      29.695  27.271  28.037  1.00  0.00    -0.271 OA
ATOM     30  N   VAL     4      27.893  25.952  28.386  1.00  0.00    -0.338 N 
ATOM     31  H   VAL     4      27.082  25.762  28.937  1.00 99.99     0.164 HD
BRANCH  30  32
ATOM     32  CA  VAL     4      28.101  24.916  27.339  1.00  0.00     0.159 C 
BRANCH  32  33
ATOM     33  CB  VAL     4      26.926  23.902  27.415  1.00  0.00     0.029 C 
ATOM     34  CG1 VAL     4      27.073  22.703  26.471  1.00  0.00     0.002 C 
ATOM     35  CG2 VAL     4      26.738  23.321  28.821  1.00  0.00     0.002 C 
ENDBRANCH  32  33
BRANCH  32  36
ATOM     36  C   VAL     4      28.311  25.471  25.901  1.00  0.00     0.251 C 
ATOM     37  O   VAL     4      28.735  24.742  25.008  1.00  0.00    -0.271 OA
ATOM     38  N   LEU     5      27.972  26.739  25.671  1.00  0.00    -0.338 N 
ATOM     39  H   LEU     5      27.481  27.286  26.349  1.00 99.99     0.164 HD
BRANCH  38  40
ATOM     40  CA  LEU     5      28.197  27.442  24.386  1.00  0.00     0.159 C 
BRANCH  40  41
ATOM     41  CB  LEU     5      26.952  28.262  24.026  1.00  0.00     0.032 C 
BRANCH  41  42
ATOM     42  CG  LEU     5      25.720  27.424  23.665  1.00  0.00     0.002 C 
ATOM     43  CD2 LEU     5      25.894  26.733  22.309  1.00  0.00     0.000 C 
ATOM     44  CD1 LEU     5      24.494  28.337  23.619  1.00  0.00     0.000 C 
ENDBRANCH  41  42
ENDBRANCH  40  41
BRANCH  40  45
ATOM     45  C   LEU     5      29.425  28.377  24.359  1.00  0.00     0.251 C 
ATOM     46  O   LEU     5      29.777  28.910  23.309  1.00  0.00    -0.271 OA
ATOM     47  N   LEU     6      30.008  28.624  25.531  1.00  0.00    -0.338 N 
ATOM     48  H   LEU     6      29.645  28.217  26.370  1.00 99.99     0.164 HD
BRANCH  47  49
ATOM     49  CA  LEU     6      31.154  29.541  25.723  1.00  0.00     0.159 C 
BRANCH  49  50
ATOM     50  C   LEU     6      32.447  28.838  26.171  1.00  0.00     0.251 C 
ATOM     51  N   GLU     7      32.288  27.833  27.033  1.00  0.00    -0.336 N 
ATOM     52  H   GLU     7      31.372  27.548  27.325  1.00 99.99     0.164 HD
ATOM     53  O   LEU     6      33.545  29.256  25.813  1.00  0.00    -0.271 OA
BRANCH  51  54
ATOM     54  CA  GLU     7      33.388  27.023  27.605  1.00  0.00     0.169 C 
BRANCH  54  55
ATOM     55  C   GLU     7      33.208  25.540  27.219  1.00  0.00     0.206 C 
ATOM     56  O   GLU     7      34.184  24.944  26.717  1.00 99.99    -0.646 OA
ATOM     57  OXT GLU     7      32.061  25.062  27.377  1.00 99.99    -0.646 OA
ENDBRANCH  54  55
BRANCH  54  58
ATOM     58  CB  GLU     7      33.389  27.156  29.139  1.00  0.00     0.044 C 
BRANCH  58  59
ATOM     59  CG  GLU     7      33.546  28.602  29.638  1.00  0.00     0.100 C 
BRANCH  59  60
ATOM     60  CD  GLU     7      33.511  28.775  31.165  1.00  0.00     0.185 C 
ATOM     61  OE1 GLU     7      32.754  28.033  31.833  1.00  0.00    -0.647 OA
ATOM     62  OE2 GLU     7      34.187  29.716  31.634  1.00  0.00    -0.647 OA
ENDBRANCH  59  60
ENDBRANCH  58  59
ENDBRANCH  54  58
ENDBRANCH  51  54
ENDBRANCH  49  50
BRANCH  49  63
ATOM     63  CB  LEU     6      30.792  30.607  26.769  1.00  0.00     0.032 C 
BRANCH  63  64
ATOM     64  CG  LEU     6      29.674  31.567  26.345  1.00  0.00     0.002 C 
ATOM     65  CD2 LEU     6      30.139  32.510  25.231  1.00  0.00     0.000 C 
ATOM     66  CD1 LEU     6      29.226  32.388  27.555  1.00  0.00     0.000 C 
ENDBRANCH  63  64
ENDBRANCH  49  63
ENDBRANCH  47  49
ENDBRANCH  40  45
ENDBRANCH  38  40
ENDBRANCH  32  36
ENDBRANCH  30  32
ENDBRANCH  23  28
ENDBRANCH  20  23
ENDBRANCH  14  19
ENDBRANCH  12  14
ENDBRANCH   5  10
ENDBRANCH   1   5
TORSDOF 28
