REMARK  21 active torsions:
REMARK  status: ('A' for Active; 'I' for Inactive)
REMARK    1  A    between atoms: N_1  and  CA_2 
REMARK    2  A    between atoms: CA_2  and  C_3 
REMARK    3  A    between atoms: CA_2  and  CB_5 
REMARK       I    between atoms: C_3  and  N_12 
REMARK    4  A    between atoms: CB_5  and  OG1_6 
REMARK    5  A    between atoms: N_12  and  CA_13 
REMARK    6  A    between atoms: CA_13  and  C_14 
REMARK    7  A    between atoms: CA_13  and  CB_16 
REMARK       I    between atoms: C_14  and  N_20 
REMARK    8  A    between atoms: N_20  and  CA_21 
REMARK    9  A    between atoms: CA_21  and  C_22 
REMARK   10  A    between atoms: CA_21  and  CB_24 
REMARK       I    between atoms: C_22  and  N_28 
REMARK   11  A    between atoms: N_28  and  CA_29 
REMARK   12  A    between atoms: CA_29  and  C_30 
REMARK   13  A    between atoms: CA_29  and  CB_32 
REMARK       I    between atoms: C_30  and  N_37 
REMARK   14  A    between atoms: CB_32  and  OG1_33 
REMARK   15  A    between atoms: N_37  and  CA_38 
REMARK   16  A    between atoms: CA_38  and  CB_41 
REMARK   17  A    between atoms: CA_38  and  C_39 
REMARK       I    between atoms: C_39  and  N_49 
REMARK   18  A    between atoms: CB_41  and  CG_42 
REMARK   19  A    between atoms: CG_42  and  CD_43 
REMARK       I    between atoms: CD_43  and  NE2_45 
REMARK   20  A    between atoms: N_49  and  CA_50 
REMARK   21  A    between atoms: CA_50  and  C_51 
ROOT
ATOM      1  N   THR     1      24.712  30.370  26.154  1.00  0.00    -0.055 N 
ATOM      2  H1  THR     1      24.104  29.585  26.254  1.00 99.99     0.276 HD
ATOM      3  H2  THR     1      24.350  31.177  26.610  1.00 99.99     0.276 HD
ATOM      4  H3  THR     1      24.779  30.640  25.199  1.00 99.99     0.276 HD
ENDROOT
BRANCH   1   5
ATOM      5  CA  THR     1      26.073  30.072  26.664  1.00  0.00     0.281 C 
BRANCH   5   6
ATOM      6  C   THR     1      26.187  28.633  27.223  1.00  0.00     0.261 C 
ATOM      7  N   VAL     2      25.413  28.278  28.259  1.00  0.00    -0.337 N 
ATOM      8  H   VAL     2      24.949  28.963  28.821  1.00 99.99     0.164 HD
ATOM      9  O   THR     1      26.728  27.792  26.512  1.00  0.00    -0.270 OA
BRANCH   7  10
ATOM     10  CA  VAL     2      25.376  26.900  28.827  1.00  0.00     0.159 C 
BRANCH  10  11
ATOM     11  C   VAL     2      25.213  25.797  27.746  1.00  0.00     0.251 C 
ATOM     12  N   VAL     3      24.141  25.881  26.954  1.00  0.00    -0.338 N 
ATOM     13  H   VAL     3      23.400  26.510  27.173  1.00 99.99     0.164 HD
ATOM     14  O   VAL     2      26.129  25.003  27.543  1.00  0.00    -0.271 OA
BRANCH  12  15
ATOM     15  CA  VAL     3      23.809  24.970  25.821  1.00  0.00     0.159 C 
BRANCH  15  16
ATOM     16  C   VAL     3      24.904  24.876  24.721  1.00  0.00     0.251 C 
ATOM     17  N   THR     4      25.780  25.876  24.659  1.00  0.00    -0.336 N 
ATOM     18  H   THR     4      25.672  26.700  25.214  1.00 99.99     0.164 HD
ATOM     19  O   VAL     3      24.919  23.941  23.925  1.00  0.00    -0.271 OA
BRANCH  17  20
ATOM     20  CA  THR     4      26.920  25.973  23.714  1.00  0.00     0.186 C 
BRANCH  20  21
ATOM     21  C   THR     4      28.248  25.482  24.338  1.00  0.00     0.253 C 
ATOM     22  N   GLN     5      28.262  25.336  25.663  1.00  0.00    -0.337 N 
ATOM     23  H   GLN     5      27.448  25.545  26.206  1.00 99.99     0.164 HD
ATOM     24  O   THR     4      29.261  25.376  23.650  1.00  0.00    -0.270 OA
BRANCH  22  25
ATOM     25  CA  GLN     5      29.447  24.959  26.471  1.00  0.00     0.160 C 
BRANCH  25  26
ATOM     26  CB  GLN     5      29.568  25.910  27.668  1.00  0.00     0.042 C 
BRANCH  26  27
ATOM     27  CG  GLN     5      29.827  27.358  27.245  1.00  0.00     0.090 C 
BRANCH  27  28
ATOM     28  CD  GLN     5      29.803  28.302  28.449  1.00  0.00     0.227 C 
ATOM     29  NE2 GLN     5      30.961  28.795  28.827  1.00  0.00    -0.369 N 
ATOM     30 2HE2 GLN     5      31.795  28.558  28.335  1.00 99.99     0.159 HD
ATOM     31 1HE2 GLN     5      30.965  29.405  29.614  1.00 99.99     0.159 HD
ATOM     32  OE1 GLN     5      28.767  28.626  29.014  1.00  0.00    -0.273 OA
ENDBRANCH  27  28
ENDBRANCH  26  27
ENDBRANCH  25  26
BRANCH  25  33
ATOM     33  C   GLN     5      29.417  23.507  26.987  1.00  0.00     0.251 C 
ATOM     34  O   GLN     5      30.403  23.014  27.529  1.00  0.00    -0.271 OA
ATOM     35  N   ALA     6      28.220  22.923  26.974  1.00  0.00    -0.336 N 
ATOM     36  H   ALA     6      27.399  23.447  26.748  1.00 99.99     0.164 HD
BRANCH  35  37
ATOM     37  CA  ALA     6      27.968  21.505  27.301  1.00  0.00     0.168 C 
ATOM     38  CB  ALA     6      26.880  21.441  28.378  1.00  0.00     0.036 C 
BRANCH  37  39
ATOM     39  C   ALA     6      27.488  20.750  26.048  1.00  0.00     0.206 C 
ATOM     40  OXT ALA     6      26.608  21.325  25.370  1.00 99.99    -0.646 OA
ATOM     41  O   ALA     6      28.073  19.688  25.746  1.00 99.99    -0.646 OA
ENDBRANCH  37  39
ENDBRANCH  35  37
ENDBRANCH  25  33
ENDBRANCH  22  25
ENDBRANCH  20  21
BRANCH  20  42
ATOM     42  CB  THR     4      27.140  27.435  23.277  1.00  0.00     0.140 C 
ATOM     43  CG2 THR     4      27.716  27.506  21.859  1.00  0.00     0.034 C 
BRANCH  42  44
ATOM     44  OG1 THR     4      25.929  28.202  23.331  1.00  0.00    -0.382 OA
ATOM     45  HG1 THR     4      26.128  29.125  22.999  1.00 99.99     0.210 HD
ENDBRANCH  42  44
ENDBRANCH  20  42
ENDBRANCH  17  20
ENDBRANCH  15  16
BRANCH  15  46
ATOM     46  CB  VAL     3      22.433  25.387  25.238  1.00  0.00     0.029 C 
ATOM     47  CG1 VAL     3      21.917  24.454  24.134  1.00  0.00     0.002 C 
ATOM     48  CG2 VAL     3      21.343  25.462  26.315  1.00  0.00     0.002 C 
ENDBRANCH  15  46
ENDBRANCH  12  15
ENDBRANCH  10  11
BRANCH  10  49
ATOM     49  CB  VAL     2      24.307  26.791  29.943  1.00  0.00     0.029 C 
ATOM     50  CG1 VAL     2      24.256  25.397  30.584  1.00  0.00     0.002 C 
ATOM     51  CG2 VAL     2      24.551  27.811  31.062  1.00  0.00     0.002 C 
ENDBRANCH  10  49
ENDBRANCH   7  10
ENDBRANCH   5   6
BRANCH   5  52
ATOM     52  CB  THR     1      26.593  31.149  27.645  1.00  0.00     0.148 C 
ATOM     53  CG2 THR     1      28.109  31.323  27.501  1.00  0.00     0.034 C 
BRANCH  52  54
ATOM     54  OG1 THR     1      25.984  32.418  27.349  1.00  0.00    -0.382 OA
ATOM     55  HG1 THR     1      26.353  33.134  27.943  1.00 99.99     0.210 HD
ENDBRANCH  52  54
ENDBRANCH   5  52
ENDBRANCH   1   5
TORSDOF 21
