REMARK  23 active torsions:
REMARK  status: ('A' for Active; 'I' for Inactive)
REMARK    1  A    between atoms: N_1  and  CA_2 
REMARK    2  A    between atoms: CA_2  and  CB_5 
REMARK    3  A    between atoms: CA_2  and  C_3 
REMARK       I    between atoms: C_3  and  N_12 
REMARK    4  A    between atoms: CB_5  and  OG1_6 
REMARK    5  A    between atoms: N_12  and  CA_13 
REMARK    6  A    between atoms: CA_13  and  C_14 
REMARK    7  A    between atoms: CA_13  and  CB_16 
REMARK       I    between atoms: C_14  and  N_20 
REMARK    8  A    between atoms: N_20  and  CA_21 
REMARK    9  A    between atoms: CA_21  and  C_22 
REMARK   10  A    between atoms: CA_21  and  CB_24 
REMARK       I    between atoms: C_22  and  N_34 
REMARK   11  A    between atoms: CB_24  and  CG_25 
REMARK   12  A    between atoms: CZ_30  and  OH_31 
REMARK   13  A    between atoms: N_34  and  CA_35 
REMARK   14  A    between atoms: CA_35  and  C_36 
REMARK   15  A    between atoms: CA_35  and  CB_38 
REMARK       I    between atoms: C_36  and  N_43 
REMARK   16  A    between atoms: CB_38  and  OG1_39 
REMARK   17  A    between atoms: N_43  and  CA_44 
REMARK   18  A    between atoms: CA_44  and  C_45 
REMARK   19  A    between atoms: CA_44  and  CB_47 
REMARK       I    between atoms: C_45  and  N_55 
REMARK   20  A    between atoms: CB_47  and  CG_48 
REMARK   21  A    between atoms: CG_48  and  CD_49 
REMARK       I    between atoms: CD_49  and  NE2_51 
REMARK   22  A    between atoms: N_55  and  CA_56 
REMARK   23  A    between atoms: CA_56  and  C_57 
ROOT
ATOM      1  N   THR     1      26.249  31.774  27.792  1.00  0.00    -0.055 N 
ATOM      2  H1  THR     1      25.778  30.905  27.739  1.00 99.99     0.276 HD
ATOM      3  H2  THR     1      25.695  32.474  28.224  1.00 99.99     0.276 HD
ATOM      4  H3  THR     1      26.441  32.126  26.888  1.00 99.99     0.276 HD
ENDROOT
BRANCH   1   5
ATOM      5  CA  THR     1      27.534  31.635  28.546  1.00  0.00     0.281 C 
BRANCH   5   6
ATOM      6  CB  THR     1      27.670  32.671  29.674  1.00  0.00     0.148 C 
ATOM      7  CG2 THR     1      29.129  33.120  29.830  1.00  0.00     0.034 C 
BRANCH   6   8
ATOM      8  OG1 THR     1      26.902  33.851  29.370  1.00  0.00    -0.382 OA
ATOM      9  HG1 THR     1      27.042  34.558  30.061  1.00 99.99     0.210 HD
ENDBRANCH   6   8
ENDBRANCH   5   6
BRANCH   5  10
ATOM     10  C   THR     1      27.688  30.156  28.975  1.00  0.00     0.261 C 
ATOM     11  O   THR     1      28.061  29.371  28.117  1.00  0.00    -0.270 OA
ATOM     12  N   VAL     2      27.083  29.731  30.101  1.00  0.00    -0.337 N 
ATOM     13  H   VAL     2      26.718  30.387  30.762  1.00 99.99     0.164 HD
BRANCH  12  14
ATOM     14  CA  VAL     2      27.069  28.324  30.585  1.00  0.00     0.159 C 
BRANCH  14  15
ATOM     15  C   VAL     2      27.024  27.245  29.470  1.00  0.00     0.251 C 
ATOM     16  O   VAL     2      28.038  26.577  29.238  1.00  0.00    -0.271 OA
ATOM     17  N   TYR     3      25.934  27.185  28.708  1.00  0.00    -0.337 N 
ATOM     18  H   TYR     3      25.113  27.701  28.952  1.00 99.99     0.164 HD
BRANCH  17  19
ATOM     19  CA  TYR     3      25.715  26.278  27.548  1.00  0.00     0.164 C 
BRANCH  19  20
ATOM     20  C   TYR     3      26.832  26.228  26.474  1.00  0.00     0.251 C 
ATOM     21  O   TYR     3      26.918  25.256  25.715  1.00  0.00    -0.271 OA
ATOM     22  N   THR     4      27.596  27.298  26.351  1.00  0.00    -0.336 N 
ATOM     23  H   THR     4      27.410  28.135  26.878  1.00 99.99     0.164 HD
BRANCH  22  24
ATOM     24  CA  THR     4      28.719  27.466  25.394  1.00  0.00     0.186 C 
BRANCH  24  25
ATOM     25  C   THR     4      30.089  27.179  26.045  1.00  0.00     0.253 C 
ATOM     26  N   GLN     5      30.123  27.097  27.366  1.00  0.00    -0.337 N 
ATOM     27  H   GLN     5      29.281  27.199  27.908  1.00 99.99     0.164 HD
ATOM     28  O   THR     4      31.118  27.167  25.355  1.00  0.00    -0.270 OA
BRANCH  26  29
ATOM     29  CA  GLN     5      31.345  26.900  28.183  1.00  0.00     0.160 C 
BRANCH  29  30
ATOM     30  C   GLN     5      31.504  25.476  28.739  1.00  0.00     0.251 C 
ATOM     31  N   ALA     6      30.400  24.739  28.742  1.00  0.00    -0.336 N 
ATOM     32  H   ALA     6      29.515  25.146  28.510  1.00 99.99     0.164 HD
ATOM     33  O   GLN     5      32.545  25.136  29.312  1.00  0.00    -0.271 OA
BRANCH  31  34
ATOM     34  CA  ALA     6      30.341  23.301  29.074  1.00  0.00     0.168 C 
ATOM     35  CB  ALA     6      29.279  23.096  30.160  1.00  0.00     0.036 C 
BRANCH  34  36
ATOM     36  C   ALA     6      29.949  22.502  27.822  1.00  0.00     0.206 C 
ATOM     37  OXT ALA     6      28.993  22.964  27.161  1.00 99.99    -0.646 OA
ATOM     38  O   ALA     6      30.678  21.539  27.489  1.00 99.99    -0.646 OA
ENDBRANCH  34  36
ENDBRANCH  31  34
ENDBRANCH  29  30
BRANCH  29  39
ATOM     39  CB  GLN     5      31.353  27.895  29.346  1.00  0.00     0.042 C 
BRANCH  39  40
ATOM     40  CG  GLN     5      31.455  29.347  28.872  1.00  0.00     0.090 C 
BRANCH  40  41
ATOM     41  CD  GLN     5      31.411  30.301  30.060  1.00  0.00     0.227 C 
ATOM     42  NE2 GLN     5      32.518  30.972  30.316  1.00  0.00    -0.369 N 
ATOM     43 1HE2 GLN     5      32.510  31.589  31.094  1.00 99.99     0.159 HD
ATOM     44 2HE2 GLN     5      33.324  30.844  29.745  1.00 99.99     0.159 HD
ATOM     45  OE1 GLN     5      30.405  30.464  30.738  1.00  0.00    -0.273 OA
ENDBRANCH  40  41
ENDBRANCH  39  40
ENDBRANCH  29  39
ENDBRANCH  26  29
ENDBRANCH  24  25
BRANCH  24  46
ATOM     46  CB  THR     4      28.770  28.910  24.853  1.00  0.00     0.140 C 
ATOM     47  CG2 THR     4      29.322  28.936  23.425  1.00  0.00     0.034 C 
BRANCH  46  48
ATOM     48  OG1 THR     4      27.482  29.539  24.865  1.00  0.00    -0.382 OA
ATOM     49  HG1 THR     4      27.581  30.457  24.478  1.00 99.99     0.210 HD
ENDBRANCH  46  48
ENDBRANCH  24  46
ENDBRANCH  22  24
ENDBRANCH  19  20
BRANCH  19  50
ATOM     50  CB  TYR     3      24.374  26.691  26.927  1.00  0.00     0.056 C 
BRANCH  50  51
ATOM     51  CG  TYR     3      23.925  25.821  25.741  1.00  0.00    -0.044 A 
ATOM     52  CD1 TYR     3      23.225  24.650  25.968  1.00  0.00     0.011 A 
ATOM     53  CE1 TYR     3      22.892  23.823  24.906  1.00  0.00     0.037 A 
ATOM     54  CZ  TYR     3      23.269  24.166  23.612  1.00  0.00     0.065 A 
ATOM     55  CE2 TYR     3      23.986  25.339  23.381  1.00  0.00     0.037 A 
ATOM     56  CD2 TYR     3      24.295  26.175  24.452  1.00  0.00     0.011 A 
BRANCH  54  57
ATOM     57  OH  TYR     3      22.866  23.403  22.569  1.00  0.00    -0.361 OA
ATOM     58  HH  TYR     3      23.236  23.780  21.722  1.00 99.99     0.217 HD
ENDBRANCH  54  57
ENDBRANCH  50  51
ENDBRANCH  19  50
ENDBRANCH  17  19
ENDBRANCH  14  15
BRANCH  14  59
ATOM     59  CB  VAL     2      25.950  28.124  31.645  1.00  0.00     0.029 C 
ATOM     60  CG1 VAL     2      25.942  26.712  32.241  1.00  0.00     0.002 C 
ATOM     61  CG2 VAL     2      26.079  29.121  32.803  1.00  0.00     0.002 C 
ENDBRANCH  14  59
ENDBRANCH  12  14
ENDBRANCH   5  10
ENDBRANCH   1   5
TORSDOF 23
