REMARK  22 active torsions:
REMARK  status: ('A' for Active; 'I' for Inactive)
REMARK    1  A    between atoms: N_1  and  CA_2 
REMARK    2  A    between atoms: CA_2  and  CB_5 
REMARK    3  A    between atoms: CA_2  and  C_3 
REMARK       I    between atoms: C_3  and  N_12 
REMARK    4  A    between atoms: CB_5  and  OG1_6 
REMARK    5  A    between atoms: N_12  and  CA_13 
REMARK    6  A    between atoms: CA_13  and  C_14 
REMARK    7  A    between atoms: CA_13  and  CB_16 
REMARK       I    between atoms: C_14  and  N_20 
REMARK    8  A    between atoms: N_20  and  CA_21 
REMARK    9  A    between atoms: CA_21  and  C_22 
REMARK   10  A    between atoms: CA_21  and  CB_24 
REMARK       I    between atoms: C_22  and  N_34 
REMARK   11  A    between atoms: CB_24  and  CG_25 
REMARK   12  A    between atoms: CZ_30  and  OH_31 
REMARK   13  A    between atoms: N_34  and  CA_35 
REMARK   14  A    between atoms: CA_35  and  C_36 
REMARK   15  A    between atoms: CA_35  and  CB_38 
REMARK       I    between atoms: C_36  and  N_43 
REMARK   16  A    between atoms: CB_38  and  OG1_39 
REMARK   17  A    between atoms: N_43  and  CA_44 
REMARK   18  A    between atoms: CA_44  and  CB_47 
REMARK   19  A    between atoms: CA_44  and  C_45 
REMARK       I    between atoms: C_45  and  N_54 
REMARK   20  A    between atoms: CB_47  and  CG_48 
REMARK       I    between atoms: CG_48  and  ND2_50 
REMARK   21  A    between atoms: N_54  and  CA_55 
REMARK   22  A    between atoms: CA_55  and  C_56 
ROOT
ATOM      1  N   THR     1      27.220  22.254  29.981  1.00  0.00    -0.055 N 
ATOM      2  H1  THR     1      26.696  22.822  30.615  1.00 99.99     0.276 HD
ATOM      3  H2  THR     1      26.718  21.401  29.820  1.00 99.99     0.276 HD
ATOM      4  H3  THR     1      28.076  21.965  30.368  1.00 99.99     0.276 HD
ENDROOT
BRANCH   1   5
ATOM      5  CA  THR     1      27.392  22.947  28.678  1.00  0.00     0.281 C 
BRANCH   5   6
ATOM      6  CB  THR     1      26.694  22.129  27.575  1.00  0.00     0.148 C 
ATOM      7  CG2 THR     1      27.531  20.936  27.108  1.00  0.00     0.034 C 
BRANCH   6   8
ATOM      8  OG1 THR     1      25.409  21.716  28.055  1.00  0.00    -0.382 OA
ATOM      9  HG1 THR     1      24.882  21.339  27.294  1.00 99.99     0.210 HD
ENDBRANCH   6   8
ENDBRANCH   5   6
BRANCH   5  10
ATOM     10  C   THR     1      26.857  24.400  28.606  1.00  0.00     0.261 C 
ATOM     11  O   THR     1      26.454  24.863  27.537  1.00  0.00    -0.270 OA
ATOM     12  N   VAL     2      27.050  25.186  29.672  1.00  0.00    -0.337 N 
ATOM     13  H   VAL     2      27.669  24.927  30.413  1.00 99.99     0.164 HD
BRANCH  12  14
ATOM     14  CA  VAL     2      26.376  26.502  29.836  1.00  0.00     0.159 C 
BRANCH  14  15
ATOM     15  C   VAL     2      26.578  27.425  28.614  1.00  0.00     0.251 C 
ATOM     16  O   VAL     2      25.656  27.583  27.820  1.00  0.00    -0.271 OA
ATOM     17  N   TYR     3      27.839  27.760  28.348  1.00  0.00    -0.337 N 
ATOM     18  H   TYR     3      28.563  27.555  29.001  1.00 99.99     0.164 HD
BRANCH  17  19
ATOM     19  CA  TYR     3      28.307  28.576  27.207  1.00  0.00     0.164 C 
BRANCH  19  20
ATOM     20  C   TYR     3      27.851  28.135  25.793  1.00  0.00     0.251 C 
ATOM     21  N   THR     4      27.550  26.849  25.624  1.00  0.00    -0.336 N 
ATOM     22  H   THR     4      27.723  26.166  26.333  1.00 99.99     0.164 HD
ATOM     23  O   TYR     3      27.878  28.937  24.864  1.00  0.00    -0.271 OA
BRANCH  21  24
ATOM     24  CA  THR     4      27.024  26.259  24.367  1.00  0.00     0.186 C 
BRANCH  24  25
ATOM     25  C   THR     4      25.493  26.420  24.231  1.00  0.00     0.253 C 
ATOM     26  O   THR     4      24.955  26.400  23.127  1.00  0.00    -0.270 OA
ATOM     27  N   ASN     5      24.820  26.541  25.374  1.00  0.00    -0.337 N 
ATOM     28  H   ASN     5      25.315  26.634  26.241  1.00 99.99     0.164 HD
BRANCH  27  29
ATOM     29  CA  ASN     5      23.349  26.542  25.518  1.00  0.00     0.169 C 
BRANCH  29  30
ATOM     30  CB  ASN     5      22.963  25.648  26.705  1.00  0.00     0.119 C 
BRANCH  30  31
ATOM     31  CG  ASN     5      23.070  24.131  26.508  1.00  0.00     0.230 C 
ATOM     32  OD1 ASN     5      24.065  23.547  26.100  1.00  0.00    -0.273 OA
ATOM     33  ND2 ASN     5      22.059  23.450  27.001  1.00  0.00    -0.369 N 
ATOM     34 2HD2 ASN     5      21.317  23.928  27.462  1.00 99.99     0.159 HD
ATOM     35 1HD2 ASN     5      22.069  22.462  26.897  1.00 99.99     0.159 HD
ENDBRANCH  30  31
ENDBRANCH  29  30
BRANCH  29  36
ATOM     36  C   ASN     5      22.723  27.931  25.768  1.00  0.00     0.251 C 
ATOM     37  O   ASN     5      21.538  28.127  25.510  1.00  0.00    -0.271 OA
ATOM     38  N   ALA     6      23.486  28.801  26.434  1.00  0.00    -0.336 N 
ATOM     39  H   ALA     6      24.418  28.544  26.697  1.00 99.99     0.164 HD
BRANCH  38  40
ATOM     40  CA  ALA     6      23.092  30.162  26.876  1.00  0.00     0.168 C 
ATOM     41  CB  ALA     6      22.104  30.077  28.050  1.00  0.00     0.036 C 
BRANCH  40  42
ATOM     42  C   ALA     6      24.323  30.951  27.358  1.00  0.00     0.206 C 
ATOM     43  O   ALA     6      24.520  32.085  26.873  1.00 99.99    -0.646 OA
ATOM     44  OXT ALA     6      25.101  30.341  28.127  1.00 99.99    -0.646 OA
ENDBRANCH  40  42
ENDBRANCH  38  40
ENDBRANCH  29  36
ENDBRANCH  27  29
ENDBRANCH  24  25
BRANCH  24  45
ATOM     45  CB  THR     4      27.338  24.753  24.302  1.00  0.00     0.140 C 
ATOM     46  CG2 THR     4      27.349  24.250  22.854  1.00  0.00     0.034 C 
BRANCH  45  47
ATOM     47  OG1 THR     4      28.604  24.458  24.907  1.00  0.00    -0.382 OA
ATOM     48  HG1 THR     4      28.787  23.481  24.790  1.00 99.99     0.210 HD
ENDBRANCH  45  47
ENDBRANCH  24  45
ENDBRANCH  21  24
ENDBRANCH  19  20
BRANCH  19  49
ATOM     49  CB  TYR     3      29.835  28.587  27.333  1.00  0.00     0.056 C 
BRANCH  49  50
ATOM     50  CG  TYR     3      30.536  29.506  26.337  1.00  0.00    -0.044 A 
ATOM     51  CD2 TYR     3      31.064  28.979  25.166  1.00  0.00     0.011 A 
ATOM     52  CE2 TYR     3      31.713  29.810  24.263  1.00  0.00     0.037 A 
ATOM     53  CZ  TYR     3      31.825  31.168  24.537  1.00  0.00     0.065 A 
ATOM     54  CE1 TYR     3      31.310  31.692  25.715  1.00  0.00     0.037 A 
ATOM     55  CD1 TYR     3      30.663  30.859  26.617  1.00  0.00     0.011 A 
BRANCH  53  56
ATOM     56  OH  TYR     3      32.478  31.987  23.672  1.00  0.00    -0.361 OA
ATOM     57  HH  TYR     3      32.753  31.462  22.869  1.00 99.99     0.217 HD
ENDBRANCH  53  56
ENDBRANCH  49  50
ENDBRANCH  19  49
ENDBRANCH  17  19
ENDBRANCH  14  15
BRANCH  14  58
ATOM     58  CB  VAL     2      26.747  27.175  31.179  1.00  0.00     0.029 C 
ATOM     59  CG2 VAL     2      26.414  26.264  32.367  1.00  0.00     0.002 C 
ATOM     60  CG1 VAL     2      26.008  28.504  31.386  1.00  0.00     0.002 C 
ENDBRANCH  14  58
ENDBRANCH  12  14
ENDBRANCH   5  10
ENDBRANCH   1   5
TORSDOF 22
