REMARK  17 active torsions:
REMARK  status: ('A' for Active; 'I' for Inactive)
REMARK    1  A    between atoms: N_1  and  CA_2 
REMARK    2  A    between atoms: CA_2  and  CB_5 
REMARK    3  A    between atoms: CA_2  and  C_3 
REMARK       I    between atoms: C_3  and  N_12 
REMARK    4  A    between atoms: CB_5  and  CG_6 
REMARK    5  A    between atoms: N_12  and  CA_13 
REMARK    6  A    between atoms: CA_13  and  C_14 
REMARK    7  A    between atoms: CA_13  and  CB_16 
REMARK       I    between atoms: C_14  and  N_21 
REMARK    8  A    between atoms: CB_16  and  CG_17 
REMARK    9  A    between atoms: N_21  and  CA_22 
REMARK   10  A    between atoms: CA_22  and  CB_25 
REMARK   11  A    between atoms: CA_22  and  C_23 
REMARK       I    between atoms: C_23  and  N_31 
REMARK   12  A    between atoms: CB_25  and  CG_26 
REMARK   13  A    between atoms: CG_26  and  CD_27 
REMARK   14  A    between atoms: N_31  and  CA_32 
REMARK   15  A    between atoms: CA_32  and  C_33 
REMARK   16  A    between atoms: CA_32  and  CB_35 
REMARK   17  A    between atoms: CB_35  and  CG_36 
ROOT
ATOM      1  N   LEU A   1      -1.130  -0.209   2.194  1.00  0.00    -0.058 N 
ATOM      2  H1  LEU A   1      -1.101  -0.366   3.184  1.00 99.99     0.276 HD
ATOM      3  H2  LEU A   1      -1.679   0.571   2.013  1.00 99.99     0.276 HD
ATOM      4  H3  LEU A   1      -1.559  -0.974   1.761  1.00 99.99     0.276 HD
ENDROOT
BRANCH   1   5
ATOM      5  CA  LEU A   1       0.265  -0.025   1.760  1.00  0.00     0.255 C 
BRANCH   5   6
ATOM      6  CB  LEU A   1       0.501   1.314   1.037  1.00  0.00     0.040 C 
BRANCH   6   7
ATOM      7  CG  LEU A   1       1.938   1.246   0.486  1.00  0.00     0.002 C 
ATOM      8  CD1 LEU A   1       2.050   0.688  -0.932  1.00  0.00     0.000 C 
ATOM      9  CD2 LEU A   1       2.827   2.433   0.862  1.00  0.00     0.000 C 
ENDBRANCH   6   7
ENDBRANCH   5   6
BRANCH   5  10
ATOM     10  C   LEU A   1       1.125  -0.137   3.049  1.00  0.00     0.259 C 
ATOM     11  N   LEU A   2       2.446  -0.092   2.922  1.00  0.00    -0.338 N 
ATOM     12  H   LEU A   2       2.894   0.271   2.098  1.00 99.99     0.164 HD
ATOM     13  O   LEU A   1       0.578  -0.306   4.131  1.00  0.00    -0.271 OA
BRANCH  11  14
ATOM     14  CA  LEU A   2       3.382  -0.219   4.043  1.00  0.00     0.159 C 
BRANCH  14  15
ATOM     15  C   LEU A   2       4.806  -0.028   3.472  1.00  0.00     0.251 C 
ATOM     16  O   LEU A   2       4.956   0.165   2.274  1.00  0.00    -0.271 OA
ATOM     17  N   GLU A   3       5.791   0.100   4.354  1.00  0.00    -0.338 N 
ATOM     18  H   GLU A   3       5.649   0.035   5.346  1.00 99.99     0.164 HD
BRANCH  17  19
ATOM     19  CA  GLU A   3       7.210   0.193   3.972  1.00  0.00     0.160 C 
BRANCH  19  20
ATOM     20  CB  GLU A   3       7.461   1.548   3.312  1.00  0.00     0.043 C 
BRANCH  20  21
ATOM     21  CG  GLU A   3       8.228   1.364   2.010  1.00  0.00     0.100 C 
BRANCH  21  22
ATOM     22  CD  GLU A   3       8.507   2.730   1.336  1.00  0.00     0.185 C 
ATOM     23  OE1 GLU A   3       8.048   2.930   0.245  1.00  0.00    -0.647 OA
ATOM     24  OE2 GLU A   3       9.238   3.519   2.026  1.00  0.00    -0.647 OA
ENDBRANCH  21  22
ENDBRANCH  20  21
ENDBRANCH  19  20
BRANCH  19  25
ATOM     25  C   GLU A   3       8.054   0.041   5.261  1.00  0.00     0.251 C 
ATOM     26  N   LEU A   4       9.363   0.136   5.103  1.00  0.00    -0.336 N 
ATOM     27  H   LEU A   4       9.776   0.498   4.265  1.00 99.99     0.164 HD
ATOM     28  O   GLU A   3       7.494  -0.122   6.335  1.00  0.00    -0.271 OA
BRANCH  26  29
ATOM     29  CA  LEU A   4      10.328  -0.020   6.214  1.00  0.00     0.168 C 
BRANCH  29  30
ATOM     30  C   LEU A   4      11.813   0.198   5.751  1.00  0.00     0.206 C 
ATOM     31  O   LEU A   4      11.937   0.417   4.502  1.00  0.00    -0.646 OA
ATOM     32  OXT LEU A   4      12.695   0.288   6.567  1.00  0.00    -0.646 OA
ENDBRANCH  29  30
BRANCH  29  33
ATOM     33  CB  LEU A   4      10.208  -1.363   6.947  1.00  0.00     0.033 C 
BRANCH  33  34
ATOM     34  CG  LEU A   4      11.012  -1.182   8.239  1.00  0.00     0.002 C 
ATOM     35  CD1 LEU A   4      10.201  -0.665   9.429  1.00  0.00     0.000 C 
ATOM     36  CD2 LEU A   4      12.034  -2.292   8.472  1.00  0.00     0.000 C 
ENDBRANCH  33  34
ENDBRANCH  29  33
ENDBRANCH  26  29
ENDBRANCH  19  25
ENDBRANCH  17  19
ENDBRANCH  14  15
BRANCH  14  37
ATOM     37  CB  LEU A   2       3.260  -1.571   4.759  1.00  0.00     0.032 C 
BRANCH  37  38
ATOM     38  CG  LEU A   2       4.043  -1.386   6.060  1.00  0.00     0.002 C 
ATOM     39  CD1 LEU A   2       3.214  -0.851   7.228  1.00  0.00     0.000 C 
ATOM     40  CD2 LEU A   2       5.041  -2.513   6.317  1.00  0.00     0.000 C 
ENDBRANCH  37  38
ENDBRANCH  14  37
ENDBRANCH  11  14
ENDBRANCH   5  10
ENDBRANCH   1   5
TORSDOF 17
