REMARK  20 active torsions:
REMARK  status: ('A' for Active; 'I' for Inactive)
REMARK    1  A    between atoms: N_1  and  CA_2 
REMARK    2  A    between atoms: CA_2  and  C_3 
REMARK    3  A    between atoms: CA_2  and  CB_5 
REMARK       I    between atoms: C_3  and  N_12 
REMARK    4  A    between atoms: CB_5  and  OG1_6 
REMARK    5  A    between atoms: N_12  and  CA_13 
REMARK    6  A    between atoms: CA_13  and  C_14 
REMARK    7  A    between atoms: CA_13  and  CB_16 
REMARK       I    between atoms: C_14  and  N_20 
REMARK    8  A    between atoms: N_20  and  CA_21 
REMARK    9  A    between atoms: CA_21  and  CB_24 
REMARK   10  A    between atoms: CA_21  and  C_22 
REMARK       I    between atoms: C_22  and  N_28 
REMARK   11  A    between atoms: N_28  and  CA_29 
REMARK   12  A    between atoms: CA_29  and  CB_32 
REMARK   13  A    between atoms: CA_29  and  C_30 
REMARK       I    between atoms: C_30  and  N_37 
REMARK   14  A    between atoms: CB_32  and  OG1_33 
REMARK   15  A    between atoms: N_37  and  CA_38 
REMARK   16  A    between atoms: CA_38  and  C_39 
REMARK   17  A    between atoms: CA_38  and  CB_41 
REMARK       I    between atoms: C_39  and  N_48 
REMARK   18  A    between atoms: CB_41  and  CG_42 
REMARK       I    between atoms: CG_42  and  ND2_44 
REMARK   19  A    between atoms: N_48  and  CA_49 
REMARK   20  A    between atoms: CA_49  and  C_50 
ROOT
ATOM      1  N   THR     1      25.720  22.471  24.996  1.00  0.00    -0.055 N 
ATOM      2  H1  THR     1      25.748  22.646  25.981  1.00 99.99     0.276 HD
ATOM      3  H2  THR     1      25.047  21.777  24.768  1.00 99.99     0.276 HD
ATOM      4  H3  THR     1      26.586  22.081  24.697  1.00 99.99     0.276 HD
ENDROOT
BRANCH   1   5
ATOM      5  CA  THR     1      25.452  23.715  24.235  1.00  0.00     0.281 C 
BRANCH   5   6
ATOM      6  C   THR     1      25.285  24.941  25.162  1.00  0.00     0.261 C 
ATOM      7  O   THR     1      26.278  25.629  25.371  1.00  0.00    -0.270 OA
ATOM      8  N   VAL     2      24.169  25.060  25.900  1.00  0.00    -0.337 N 
ATOM      9  H   VAL     2      23.391  24.446  25.784  1.00 99.99     0.164 HD
BRANCH   8  10
ATOM     10  CA  VAL     2      23.925  26.181  26.854  1.00  0.00     0.159 C 
BRANCH  10  11
ATOM     11  C   VAL     2      25.169  26.483  27.729  1.00  0.00     0.251 C 
ATOM     12  N   VAL     3      25.566  25.504  28.541  1.00  0.00    -0.338 N 
ATOM     13  H   VAL     3      24.955  24.737  28.719  1.00 99.99     0.164 HD
ATOM     14  O   VAL     2      25.861  27.458  27.454  1.00  0.00    -0.271 OA
BRANCH  12  15
ATOM     15  CA  VAL     3      26.760  25.488  29.432  1.00  0.00     0.159 C 
BRANCH  15  16
ATOM     16  CB  VAL     3      26.851  24.079  30.080  1.00  0.00     0.029 C 
ATOM     17  CG2 VAL     3      25.542  23.662  30.765  1.00  0.00     0.002 C 
ATOM     18  CG1 VAL     3      27.975  23.941  31.114  1.00  0.00     0.002 C 
ENDBRANCH  15  16
BRANCH  15  19
ATOM     19  C   VAL     3      28.106  25.899  28.771  1.00  0.00     0.251 C 
ATOM     20  N   THR     4      28.216  25.748  27.454  1.00  0.00    -0.336 N 
ATOM     21  H   THR     4      27.469  25.381  26.897  1.00 99.99     0.164 HD
ATOM     22  O   VAL     3      29.029  26.324  29.461  1.00  0.00    -0.271 OA
BRANCH  20  23
ATOM     23  CA  THR     4      29.414  26.097  26.648  1.00  0.00     0.186 C 
BRANCH  23  24
ATOM     24  CB  THR     4      29.504  25.175  25.417  1.00  0.00     0.140 C 
ATOM     25  CG2 THR     4      30.915  25.155  24.822  1.00  0.00     0.034 C 
BRANCH  24  26
ATOM     26  OG1 THR     4      29.122  23.830  25.748  1.00  0.00    -0.382 OA
ATOM     27  HG1 THR     4      29.243  23.264  24.933  1.00 99.99     0.210 HD
ENDBRANCH  24  26
ENDBRANCH  23  24
BRANCH  23  28
ATOM     28  C   THR     4      29.381  27.561  26.150  1.00  0.00     0.253 C 
ATOM     29  O   THR     4      30.421  28.159  25.876  1.00  0.00    -0.270 OA
ATOM     30  N   ASN     5      28.176  28.121  26.084  1.00  0.00    -0.337 N 
ATOM     31  H   ASN     5      27.386  27.641  26.469  1.00 99.99     0.164 HD
BRANCH  30  32
ATOM     32  CA  ASN     5      27.841  29.413  25.446  1.00  0.00     0.169 C 
BRANCH  32  33
ATOM     33  C   ASN     5      27.422  30.516  26.444  1.00  0.00     0.251 C 
ATOM     34  O   ASN     5      27.481  31.700  26.120  1.00  0.00    -0.271 OA
ATOM     35  N   ALA     6      26.814  30.088  27.553  1.00  0.00    -0.336 N 
ATOM     36  H   ALA     6      26.683  29.103  27.694  1.00 99.99     0.164 HD
BRANCH  35  37
ATOM     37  CA  ALA     6      26.245  30.924  28.636  1.00  0.00     0.168 C 
ATOM     38  CB  ALA     6      24.937  31.578  28.169  1.00  0.00     0.036 C 
BRANCH  37  39
ATOM     39  C   ALA     6      25.927  30.065  29.876  1.00  0.00     0.206 C 
ATOM     40  OXT ALA     6      25.321  28.989  29.664  1.00 99.99    -0.646 OA
ATOM     41  O   ALA     6      26.382  30.438  30.977  1.00 99.99    -0.646 OA
ENDBRANCH  37  39
ENDBRANCH  35  37
ENDBRANCH  32  33
BRANCH  32  42
ATOM     42  CB  ASN     5      26.658  29.190  24.492  1.00  0.00     0.119 C 
BRANCH  42  43
ATOM     43  CG  ASN     5      26.869  28.259  23.289  1.00  0.00     0.230 C 
ATOM     44  ND2 ASN     5      26.103  28.519  22.254  1.00  0.00    -0.369 N 
ATOM     45 2HD2 ASN     5      25.456  29.276  22.285  1.00 99.99     0.159 HD
ATOM     46 1HD2 ASN     5      26.216  27.943  21.451  1.00 99.99     0.159 HD
ATOM     47  OD1 ASN     5      27.572  27.259  23.290  1.00  0.00    -0.273 OA
ENDBRANCH  42  43
ENDBRANCH  32  42
ENDBRANCH  30  32
ENDBRANCH  23  28
ENDBRANCH  20  23
ENDBRANCH  15  19
ENDBRANCH  12  15
ENDBRANCH  10  11
BRANCH  10  48
ATOM     48  CB  VAL     2      22.653  25.939  27.703  1.00  0.00     0.029 C 
ATOM     49  CG2 VAL     2      21.416  25.727  26.823  1.00  0.00     0.002 C 
ATOM     50  CG1 VAL     2      22.355  27.103  28.660  1.00  0.00     0.002 C 
ENDBRANCH  10  48
ENDBRANCH   8  10
ENDBRANCH   5   6
BRANCH   5  51
ATOM     51  CB  THR     1      24.289  23.570  23.225  1.00  0.00     0.148 C 
ATOM     52  CG2 THR     1      24.437  24.580  22.079  1.00  0.00     0.034 C 
BRANCH  51  53
ATOM     53  OG1 THR     1      24.292  22.246  22.675  1.00  0.00    -0.382 OA
ATOM     54  HG1 THR     1      23.566  22.136  21.994  1.00 99.99     0.210 HD
ENDBRANCH  51  53
ENDBRANCH   5  51
ENDBRANCH   1   5
TORSDOF 20
