REMARK WARNING: 32 MAX_TORS EXCEEDED!!!
REMARK  37 active torsions:
REMARK  status: ('A' for Active; 'I' for Inactive)
REMARK    1  A    between atoms: N_1  and  CA_2 
REMARK    2  A    between atoms: CA_2  and  CB_5 
REMARK    3  A    between atoms: CA_2  and  C_3 
REMARK       I    between atoms: C_3  and  N_12 
REMARK    4  A    between atoms: CB_5  and  CG_6 
REMARK    5  A    between atoms: N_12  and  CA_13 
REMARK    6  A    between atoms: CA_13  and  CB_16 
REMARK    7  A    between atoms: CA_13  and  C_14 
REMARK       I    between atoms: C_14  and  N_25 
REMARK    8  A    between atoms: CB_16  and  CG_17 
REMARK    9  A    between atoms: CG_17  and  CD_18 
REMARK   10  A    between atoms: CD_18  and  CE_19 
REMARK   11  A    between atoms: CE_19  and  NZ_20 
REMARK   12  A    between atoms: N_25  and  CA_26 
REMARK   13  A    between atoms: CA_26  and  CB_29 
REMARK   14  A    between atoms: CA_26  and  C_27 
REMARK       I    between atoms: C_27  and  N_34 
REMARK   15  A    between atoms: CB_29  and  CG_30 
REMARK   16  A    between atoms: N_34  and  CA_35 
REMARK   17  A    between atoms: CA_35  and  CB_38 
REMARK   18  A    between atoms: CA_35  and  C_36 
REMARK       I    between atoms: C_36  and  N_43 
REMARK   19  A    between atoms: CB_38  and  CG_39 
REMARK   20  A    between atoms: N_43  and  CA_44 
REMARK   21  A    between atoms: CA_44  and  C_45 
REMARK   22  A    between atoms: CA_44  and  CB_47 
REMARK       I    between atoms: C_45  and  N_56 
REMARK   23  A    between atoms: CB_47  and  CG_48 
REMARK   24  A    between atoms: CG_48  and  CD_49 
REMARK   25  A    between atoms: CD_49  and  CE_50 
REMARK   26  A    between atoms: CE_50  and  NZ_51 
REMARK   27  A    between atoms: N_56  and  CA_57 
REMARK   28  A    between atoms: CA_57  and  C_58 
REMARK   29  A    between atoms: CA_57  and  CB_60 
REMARK       I    between atoms: C_58  and  N_69 
REMARK   30  A    between atoms: CB_60  and  CG_61 
REMARK   31  A    between atoms: CG_61  and  CD_62 
REMARK   32  A    between atoms: CD_62  and  CE_63 
REMARK   33  A    between atoms: CE_63  and  NZ_64 
REMARK   34  A    between atoms: N_69  and  CA_70 
REMARK   35  A    between atoms: CA_70  and  CB_73 
REMARK   36  A    between atoms: CA_70  and  C_71 
REMARK   37  A    between atoms: CB_73  and  CG_74 
ROOT
ATOM      1  N   LEU     1      30.852  26.557  32.909  1.00  0.00    -0.058 N 
ATOM      2  H1  LEU     1      30.525  27.500  32.850  1.00 99.99     0.276 HD
ATOM      3  H2  LEU     1      30.706  26.206  33.825  1.00 99.99     0.276 HD
ATOM      4  H3  LEU     1      31.846  26.546  32.800  1.00 99.99     0.276 HD
ENDROOT
BRANCH   1   5
ATOM      5  CA  LEU     1      30.191  25.718  31.875  1.00  0.00     0.255 C 
BRANCH   5   6
ATOM      6  CB  LEU     1      29.663  24.382  32.427  1.00  0.00     0.040 C 
BRANCH   6   7
ATOM      7  CG  LEU     1      30.772  23.378  32.792  1.00  0.00     0.002 C 
ATOM      8  CD1 LEU     1      30.149  22.101  33.356  1.00  0.00     0.000 C 
ATOM      9  CD2 LEU     1      31.659  23.024  31.591  1.00  0.00     0.000 C 
ENDBRANCH   6   7
ENDBRANCH   5   6
BRANCH   5  10
ATOM     10  C   LEU     1      29.159  26.384  30.930  1.00  0.00     0.259 C 
ATOM     11  N   LYS     2      27.961  26.760  31.408  1.00  0.00    -0.338 N 
ATOM     12  H   LYS     2      27.654  26.513  32.326  1.00 99.99     0.164 HD
ATOM     13  O   LEU     1      29.520  26.653  29.785  1.00  0.00    -0.271 OA
BRANCH  11  14
ATOM     14  CA  LYS     2      26.911  27.382  30.555  1.00  0.00     0.159 C 
BRANCH  14  15
ATOM     15  CB  LYS     2      25.695  27.853  31.373  1.00  0.00     0.032 C 
BRANCH  15  16
ATOM     16  CG  LYS     2      24.768  26.700  31.783  1.00  0.00     0.004 C 
BRANCH  16  17
ATOM     17  CD  LYS     2      23.484  27.203  32.459  1.00  0.00     0.032 C 
BRANCH  17  18
ATOM     18  CE  LYS     2      22.551  26.043  32.826  1.00  0.00     0.206 C 
BRANCH  18  19
ATOM     19  NZ  LYS     2      21.304  26.494  33.470  1.00  0.00    -0.064 N 
ATOM     20  HZ1 LYS     2      20.737  25.701  33.689  1.00 99.99     0.275 HD
ATOM     21  HZ2 LYS     2      21.513  26.989  34.314  1.00 99.99     0.275 HD
ATOM     22  HZ3 LYS     2      20.797  27.094  32.851  1.00 99.99     0.275 HD
ENDBRANCH  18  19
ENDBRANCH  17  18
ENDBRANCH  16  17
ENDBRANCH  15  16
ENDBRANCH  14  15
BRANCH  14  23
ATOM     23  C   LYS     2      27.391  28.508  29.613  1.00  0.00     0.251 C 
ATOM     24  N   LEU     3      28.190  29.441  30.137  1.00  0.00    -0.338 N 
ATOM     25  H   LEU     3      28.272  29.557  31.122  1.00 99.99     0.164 HD
ATOM     26  O   LYS     2      27.198  28.408  28.403  1.00  0.00    -0.271 OA
BRANCH  24  27
ATOM     27  CA  LEU     3      28.845  30.504  29.332  1.00  0.00     0.159 C 
BRANCH  27  28
ATOM     28  CB  LEU     3      29.650  31.436  30.250  1.00  0.00     0.032 C 
BRANCH  28  29
ATOM     29  CG  LEU     3      28.778  32.242  31.220  1.00  0.00     0.002 C 
ATOM     30  CD2 LEU     3      27.928  33.282  30.480  1.00  0.00     0.000 C 
ATOM     31  CD1 LEU     3      29.664  32.948  32.248  1.00  0.00     0.000 C 
ENDBRANCH  28  29
ENDBRANCH  27  28
BRANCH  27  32
ATOM     32  C   LEU     3      29.726  29.966  28.184  1.00  0.00     0.251 C 
ATOM     33  N   LEU     4      30.720  29.150  28.532  1.00  0.00    -0.338 N 
ATOM     34  H   LEU     4      31.003  29.078  29.487  1.00 99.99     0.164 HD
ATOM     35  O   LEU     3      29.443  30.223  27.015  1.00  0.00    -0.271 OA
BRANCH  33  36
ATOM     36  CA  LEU     4      31.617  28.410  27.611  1.00  0.00     0.159 C 
BRANCH  36  37
ATOM     37  CB  LEU     4      32.568  27.537  28.441  1.00  0.00     0.032 C 
BRANCH  37  38
ATOM     38  CG  LEU     4      33.504  28.302  29.383  1.00  0.00     0.002 C 
ATOM     39  CD1 LEU     4      34.224  27.296  30.282  1.00  0.00     0.000 C 
ATOM     40  CD2 LEU     4      34.533  29.133  28.608  1.00  0.00     0.000 C 
ENDBRANCH  37  38
ENDBRANCH  36  37
BRANCH  36  41
ATOM     41  C   LEU     4      30.953  27.511  26.544  1.00  0.00     0.251 C 
ATOM     42  O   LEU     4      31.656  26.893  25.745  1.00  0.00    -0.271 OA
ATOM     43  N   LYS     5      29.644  27.294  26.672  1.00  0.00    -0.338 N 
ATOM     44  H   LYS     5      29.165  27.516  27.520  1.00 99.99     0.164 HD
BRANCH  43  45
ATOM     45  CA  LYS     5      28.817  26.576  25.676  1.00  0.00     0.159 C 
BRANCH  45  46
ATOM     46  C   LYS     5      27.836  27.473  24.889  1.00  0.00     0.251 C 
ATOM     47  O   LYS     5      26.979  26.983  24.154  1.00  0.00    -0.271 OA
ATOM     48  N   LYS     6      27.911  28.775  25.145  1.00  0.00    -0.338 N 
ATOM     49  H   LYS     6      28.480  29.109  25.896  1.00 99.99     0.164 HD
BRANCH  48  50
ATOM     50  CA  LYS     6      27.099  29.823  24.490  1.00  0.00     0.159 C 
BRANCH  50  51
ATOM     51  C   LYS     6      27.978  30.871  23.764  1.00  0.00     0.251 C 
ATOM     52  O   LYS     6      27.479  31.722  23.030  1.00  0.00    -0.271 OA
ATOM     53  N   LEU     7      29.238  30.959  24.185  1.00  0.00    -0.336 N 
ATOM     54  H   LEU     7      29.516  30.568  25.063  1.00 99.99     0.164 HD
BRANCH  53  55
ATOM     55  CA  LEU     7      30.312  31.659  23.448  1.00  0.00     0.168 C 
BRANCH  55  56
ATOM     56  CB  LEU     7      31.516  31.887  24.374  1.00  0.00     0.033 C 
BRANCH  56  57
ATOM     57  CG  LEU     7      31.249  32.787  25.586  1.00  0.00     0.002 C 
ATOM     58  CD2 LEU     7      31.077  34.249  25.164  1.00  0.00     0.000 C 
ATOM     59  CD1 LEU     7      32.423  32.671  26.560  1.00  0.00     0.000 C 
ENDBRANCH  56  57
ENDBRANCH  55  56
BRANCH  55  60
ATOM     60  C   LEU     7      30.787  30.789  22.270  1.00  0.00     0.206 C 
ATOM     61  OXT LEU     7      31.057  29.601  22.556  1.00 99.99    -0.646 OA
ATOM     62  O   LEU     7      30.856  31.312  21.138  1.00 99.99    -0.646 OA
ENDBRANCH  55  60
ENDBRANCH  53  55
ENDBRANCH  50  51
BRANCH  50  63
ATOM     63  CB  LYS     6      26.220  30.483  25.557  1.00  0.00     0.032 C 
BRANCH  63  64
ATOM     64  CG  LYS     6      25.063  31.244  24.908  1.00  0.00     0.004 C 
BRANCH  64  65
ATOM     65  CD  LYS     6      24.602  32.411  25.776  1.00  0.00     0.032 C 
BRANCH  65  66
ATOM     66  CE  LYS     6      23.761  33.360  24.922  1.00  0.00     0.206 C 
BRANCH  66  67
ATOM     67  NZ  LYS     6      23.363  34.554  25.679  1.00  0.00    -0.064 N 
ATOM     68  HZ1 LYS     6      22.840  35.159  25.080  1.00 99.99     0.275 HD
ATOM     69  HZ2 LYS     6      22.797  34.276  26.455  1.00 99.99     0.275 HD
ATOM     70  HZ3 LYS     6      24.179  35.029  26.006  1.00 99.99     0.275 HD
ENDBRANCH  66  67
ENDBRANCH  65  66
ENDBRANCH  64  65
ENDBRANCH  63  64
ENDBRANCH  50  63
ENDBRANCH  48  50
ENDBRANCH  45  46
BRANCH  45  71
ATOM     71  CB  LYS     5      28.007  25.485  26.383  1.00  0.00     0.032 C 
BRANCH  71  72
ATOM     72  CG  LYS     5      28.827  24.269  26.811  1.00  0.00     0.004 C 
BRANCH  72  73
ATOM     73  CD  LYS     5      27.854  23.166  27.223  1.00  0.00     0.032 C 
BRANCH  73  74
ATOM     74  CE  LYS     5      28.568  21.846  27.514  1.00  0.00     0.206 C 
BRANCH  74  75
ATOM     75  NZ  LYS     5      27.585  20.767  27.678  1.00  0.00    -0.064 N 
ATOM     76  HZ1 LYS     5      28.059  19.907  27.864  1.00 99.99     0.275 HD
ATOM     77  HZ2 LYS     5      26.968  20.984  28.436  1.00 99.99     0.275 HD
ATOM     78  HZ3 LYS     5      27.053  20.677  26.836  1.00 99.99     0.275 HD
ENDBRANCH  74  75
ENDBRANCH  73  74
ENDBRANCH  72  73
ENDBRANCH  71  72
ENDBRANCH  45  71
ENDBRANCH  43  45
ENDBRANCH  36  41
ENDBRANCH  33  36
ENDBRANCH  27  32
ENDBRANCH  24  27
ENDBRANCH  14  23
ENDBRANCH  11  14
ENDBRANCH   5  10
ENDBRANCH   1   5
TORSDOF 37
