REMARK  9 active torsions:
REMARK  status: ('A' for Active; 'I' for Inactive)
REMARK    1  A    between atoms: N_1  and  CA_2 
REMARK    2  A    between atoms: CA_2  and  CB_5 
REMARK    3  A    between atoms: CA_2  and  C_3 
REMARK       I    between atoms: C_3  and  N_12 
REMARK    4  A    between atoms: CB_5  and  CG_6 
REMARK    5  A    between atoms: N_12  and  CA_13 
REMARK    6  A    between atoms: CA_13  and  CB_16 
REMARK    7  A    between atoms: CA_13  and  C_14 
REMARK    8  A    between atoms: CB_16  and  CG_17 
REMARK    9  A    between atoms: CG_17  and  CD_18 
ROOT
ATOM      1  N   LEU A   1      -0.072   0.004  -0.051  1.00  0.00    -0.058 N 
ATOM      2  H1  LEU A   1      -0.385   0.005  -1.003  1.00 99.99     0.276 HD
ATOM      3  H2  LEU A   1      -0.423  -0.785   0.453  1.00 99.99     0.276 HD
ATOM      4  H3  LEU A   1      -0.423   0.785   0.453  1.00 99.99     0.276 HD
ENDROOT
BRANCH   1   5
ATOM      5  CA  LEU A   1       1.406   0.007   0.055  1.00  0.00     0.255 C 
BRANCH   5   6
ATOM      6  CB  LEU A   1       2.037   1.178  -0.714  1.00  0.00     0.040 C 
BRANCH   6   7
ATOM      7  CG  LEU A   1       3.555   0.913  -0.736  1.00  0.00     0.002 C 
ATOM      8  CD1 LEU A   1       4.035   0.147  -1.967  1.00  0.00     0.000 C 
ATOM      9  CD2 LEU A   1       4.407   2.085  -0.249  1.00  0.00     0.000 C 
ENDBRANCH   6   7
ENDBRANCH   5   6
BRANCH   5  10
ATOM     10  C   LEU A   1       1.793   0.043   1.561  1.00  0.00     0.259 C 
ATOM     11  O   LEU A   1       0.932   0.092   2.405  1.00  0.00    -0.271 OA
ATOM     12  N   GLU A   2       3.109  -0.079   1.882  1.00  0.00    -0.336 N 
ATOM     13  H   GLU A   2       3.820  -0.042   1.188  1.00 99.99     0.164 HD
BRANCH  12  14
ATOM     14  CA  GLU A   2       3.601  -0.041   3.273  1.00  0.00     0.169 C 
BRANCH  14  15
ATOM     15  CB  GLU A   2       3.066  -1.249   4.049  1.00  0.00     0.044 C 
BRANCH  15  16
ATOM     16  CG  GLU A   2       2.437  -0.807   5.373  1.00  0.00     0.100 C 
BRANCH  16  17
ATOM     17  CD  GLU A   2       1.951  -2.009   6.177  1.00  0.00     0.185 C 
ATOM     18  OE2 GLU A   2       2.818  -2.851   6.520  1.00  0.00    -0.647 OA
ATOM     19  OE1 GLU A   2       0.733  -2.068   6.444  1.00  0.00    -0.647 OA
ENDBRANCH  16  17
ENDBRANCH  15  16
ENDBRANCH  14  15
BRANCH  14  20
ATOM     20  C   GLU A   2       5.144  -0.019   3.351  1.00  0.00     0.206 C 
ATOM     21  O   GLU A   2       5.760  -0.012   2.261  1.00  0.00    -0.646 OA
ATOM     22  OXT GLU A   2       5.665   0.017   4.486  1.00  0.00    -0.646 OA
ENDBRANCH  14  20
ENDBRANCH  12  14
ENDBRANCH   5  10
ENDBRANCH   1   5
TORSDOF 9
