REMARK  17 active torsions:
REMARK  status: ('A' for Active; 'I' for Inactive)
REMARK    1  A    between atoms: N_1  and  CA_2 
REMARK    2  A    between atoms: CA_2  and  C_3 
REMARK    3  A    between atoms: CA_2  and  CB_5 
REMARK       I    between atoms: C_3  and  N_12 
REMARK    4  A    between atoms: CB_5  and  CG_6 
REMARK    5  A    between atoms: N_12  and  CA_13 
REMARK    6  A    between atoms: CA_13  and  C_14 
REMARK    7  A    between atoms: CA_13  and  CB_16 
REMARK       I    between atoms: C_14  and  N_21 
REMARK    8  A    between atoms: CB_16  and  CG_17 
REMARK    9  A    between atoms: N_21  and  CA_22 
REMARK   10  A    between atoms: CA_22  and  C_23 
REMARK   11  A    between atoms: CA_22  and  CB_25 
REMARK       I    between atoms: C_23  and  N_31 
REMARK   12  A    between atoms: CB_25  and  CG_26 
REMARK   13  A    between atoms: CG_26  and  CD_27 
REMARK   14  A    between atoms: N_31  and  CA_32 
REMARK   15  A    between atoms: CA_32  and  C_33 
REMARK   16  A    between atoms: CA_32  and  CB_35 
REMARK   17  A    between atoms: CB_35  and  CG_36 
ROOT
ATOM      1  N   LEU A   1      -0.079   0.004  -0.059  1.00  0.00    -0.058 N 
ATOM      2  H1  LEU A   1      -0.392   0.005  -1.008  1.00 99.99     0.276 HD
ATOM      3  H2  LEU A   1      -0.423  -0.785   0.453  1.00 99.99     0.276 HD
ATOM      4  H3  LEU A   1      -0.423   0.785   0.453  1.00 99.99     0.276 HD
ENDROOT
BRANCH   1   5
ATOM      5  CA  LEU A   1       1.395   0.013   0.041  1.00  0.00     0.255 C 
BRANCH   5   6
ATOM      6  C   LEU A   1       1.783   0.046   1.546  1.00  0.00     0.259 C 
ATOM      7  O   LEU A   1       0.905   0.098   2.396  1.00  0.00    -0.271 OA
ATOM      8  N   LEU A   2       3.069  -0.094   1.865  1.00  0.00    -0.338 N 
ATOM      9  H   LEU A   2       3.814  -0.035   1.193  1.00 99.99     0.164 HD
BRANCH   8  10
ATOM     10  CA  LEU A   2       3.574  -0.066   3.243  1.00  0.00     0.159 C 
BRANCH  10  11
ATOM     11  C   LEU A   2       5.119  -0.064   3.167  1.00  0.00     0.251 C 
ATOM     12  O   LEU A   2       5.669  -0.086   2.075  1.00  0.00    -0.271 OA
ATOM     13  N   GLU A   3       5.784   0.063   4.311  1.00  0.00    -0.338 N 
ATOM     14  H   GLU A   3       5.328   0.040   5.207  1.00 99.99     0.164 HD
BRANCH  13  15
ATOM     15  CA  GLU A   3       7.253   0.034   4.414  1.00  0.00     0.160 C 
BRANCH  15  16
ATOM     16  C   GLU A   3       7.610   0.056   5.917  1.00  0.00     0.251 C 
ATOM     17  O   GLU A   3       6.717   0.092   6.753  1.00  0.00    -0.271 OA
ATOM     18  N   LEU A   4       8.892  -0.099   6.198  1.00  0.00    -0.336 N 
ATOM     19  H   LEU A   4       9.597  -0.217   5.494  1.00 99.99     0.164 HD
BRANCH  18  20
ATOM     20  CA  LEU A   4       9.420  -0.060   7.576  1.00  0.00     0.168 C 
BRANCH  20  21
ATOM     21  C   LEU A   4      10.988  -0.009   7.620  1.00  0.00     0.206 C 
ATOM     22  O   LEU A   4      11.537  -0.027   6.469  1.00  0.00    -0.646 OA
ATOM     23  OXT LEU A   4      11.568   0.128   8.668  1.00  0.00    -0.646 OA
ENDBRANCH  20  21
BRANCH  20  24
ATOM     24  CB  LEU A   4       8.908  -1.244   8.406  1.00  0.00     0.033 C 
BRANCH  24  25
ATOM     25  CG  LEU A   4       9.272  -0.914   9.856  1.00  0.00     0.002 C 
ATOM     26  CD1 LEU A   4       8.190  -0.154  10.626  1.00  0.00     0.000 C 
ATOM     27  CD2 LEU A   4      10.016  -2.051  10.552  1.00  0.00     0.000 C 
ENDBRANCH  24  25
ENDBRANCH  20  24
ENDBRANCH  18  20
ENDBRANCH  15  16
BRANCH  15  28
ATOM     28  CB  GLU A   3       7.854   1.250   3.708  1.00  0.00     0.043 C 
BRANCH  28  29
ATOM     29  CG  GLU A   3       8.975   0.806   2.780  1.00  0.00     0.100 C 
BRANCH  29  30
ATOM     30  CD  GLU A   3       9.625   2.019   2.071  1.00  0.00     0.185 C 
ATOM     31  OE2 GLU A   3      10.192   2.850   2.859  1.00  0.00    -0.647 OA
ATOM     32  OE1 GLU A   3       9.572   2.072   0.872  1.00  0.00    -0.647 OA
ENDBRANCH  29  30
ENDBRANCH  28  29
ENDBRANCH  15  28
ENDBRANCH  13  15
ENDBRANCH  10  11
BRANCH  10  33
ATOM     33  CB  LEU A   2       3.062  -1.267   4.050  1.00  0.00     0.032 C 
BRANCH  33  34
ATOM     34  CG  LEU A   2       3.400  -0.934   5.504  1.00  0.00     0.002 C 
ATOM     35  CD2 LEU A   2       4.109  -2.080   6.221  1.00  0.00     0.000 C 
ATOM     36  CD1 LEU A   2       2.313  -0.153   6.244  1.00  0.00     0.000 C 
ENDBRANCH  33  34
ENDBRANCH  10  33
ENDBRANCH   8  10
ENDBRANCH   5   6
BRANCH   5  37
ATOM     37  CB  LEU A   1       2.030   1.189  -0.723  1.00  0.00     0.040 C 
BRANCH  37  38
ATOM     38  CG  LEU A   1       3.545   0.919  -0.738  1.00  0.00     0.002 C 
ATOM     39  CD2 LEU A   1       4.409   2.078  -0.236  1.00  0.00     0.000 C 
ATOM     40  CD1 LEU A   1       4.036   0.140  -1.957  1.00  0.00     0.000 C 
ENDBRANCH  37  38
ENDBRANCH   5  37
ENDBRANCH   1   5
TORSDOF 17
