REMARK  17 active torsions:
REMARK  status: ('A' for Active; 'I' for Inactive)
REMARK    1  A    between atoms: N_1  and  CA_2 
REMARK    2  A    between atoms: CA_2  and  C_3 
REMARK    3  A    between atoms: CA_2  and  CB_5 
REMARK       I    between atoms: C_3  and  N_12 
REMARK    4  A    between atoms: CB_5  and  CG_6 
REMARK    5  A    between atoms: N_12  and  CA_13 
REMARK    6  A    between atoms: CA_13  and  CB_16 
REMARK    7  A    between atoms: CA_13  and  C_14 
REMARK       I    between atoms: C_14  and  N_21 
REMARK    8  A    between atoms: CB_16  and  CG_17 
REMARK    9  A    between atoms: N_21  and  CA_22 
REMARK   10  A    between atoms: CA_22  and  CB_25 
REMARK   11  A    between atoms: CA_22  and  C_23 
REMARK       I    between atoms: C_23  and  N_30 
REMARK   12  A    between atoms: CB_25  and  CG_26 
REMARK   13  A    between atoms: N_30  and  CA_31 
REMARK   14  A    between atoms: CA_31  and  C_32 
REMARK   15  A    between atoms: CA_31  and  CB_34 
REMARK   16  A    between atoms: CB_34  and  CG_35 
REMARK   17  A    between atoms: CG_35  and  CD_36 
ROOT
ATOM      1  N   LEU A   1      -0.080   0.004  -0.059  1.00  0.00    -0.058 N 
ATOM      2  H1  LEU A   1      -0.393   0.005  -1.008  1.00 99.99     0.276 HD
ATOM      3  H2  LEU A   1      -0.423  -0.785   0.453  1.00 99.99     0.276 HD
ATOM      4  H3  LEU A   1      -0.423   0.785   0.453  1.00 99.99     0.276 HD
ENDROOT
BRANCH   1   5
ATOM      5  CA  LEU A   1       1.394   0.012   0.040  1.00  0.00     0.255 C 
BRANCH   5   6
ATOM      6  C   LEU A   1       1.779   0.046   1.544  1.00  0.00     0.259 C 
ATOM      7  O   LEU A   1       0.902   0.099   2.394  1.00  0.00    -0.271 OA
ATOM      8  N   LEU A   2       3.065  -0.098   1.863  1.00  0.00    -0.338 N 
ATOM      9  H   LEU A   2       3.812  -0.036   1.193  1.00 99.99     0.164 HD
BRANCH   8  10
ATOM     10  CA  LEU A   2       3.565  -0.070   3.240  1.00  0.00     0.159 C 
BRANCH  10  11
ATOM     11  CB  LEU A   2       3.057  -1.271   4.050  1.00  0.00     0.032 C 
BRANCH  11  12
ATOM     12  CG  LEU A   2       3.397  -0.938   5.504  1.00  0.00     0.002 C 
ATOM     13  CD2 LEU A   2       4.105  -2.084   6.222  1.00  0.00     0.000 C 
ATOM     14  CD1 LEU A   2       2.313  -0.153   6.244  1.00  0.00     0.000 C 
ENDBRANCH  11  12
ENDBRANCH  10  11
BRANCH  10  15
ATOM     15  C   LEU A   2       5.110  -0.063   3.161  1.00  0.00     0.251 C 
ATOM     16  O   LEU A   2       5.663  -0.096   2.073  1.00  0.00    -0.271 OA
ATOM     17  N   LEU A   3       5.763   0.084   4.310  1.00  0.00    -0.338 N 
ATOM     18  H   LEU A   3       5.303   0.036   5.203  1.00 99.99     0.164 HD
BRANCH  17  19
ATOM     19  CA  LEU A   3       7.223   0.066   4.433  1.00  0.00     0.159 C 
BRANCH  19  20
ATOM     20  CB  LEU A   3       7.862   1.265   3.725  1.00  0.00     0.032 C 
BRANCH  20  21
ATOM     21  CG  LEU A   3       9.354   0.934   3.677  1.00  0.00     0.002 C 
ATOM     22  CD1 LEU A   3       9.788   0.154   2.435  1.00  0.00     0.000 C 
ATOM     23  CD2 LEU A   3      10.230   2.077   4.182  1.00  0.00     0.000 C 
ENDBRANCH  20  21
ENDBRANCH  19  20
BRANCH  19  24
ATOM     24  C   LEU A   3       7.566   0.069   5.950  1.00  0.00     0.251 C 
ATOM     25  O   LEU A   3       6.657   0.094   6.764  1.00  0.00    -0.271 OA
ATOM     26  N   GLU A   4       8.838  -0.119   6.277  1.00  0.00    -0.336 N 
ATOM     27  H   GLU A   4       9.556  -0.235   5.583  1.00 99.99     0.164 HD
BRANCH  26  28
ATOM     28  CA  GLU A   4       9.332  -0.046   7.668  1.00  0.00     0.169 C 
BRANCH  28  29
ATOM     29  C   GLU A   4      10.894  -0.013   7.774  1.00  0.00     0.206 C 
ATOM     30  O   GLU A   4      11.505  -0.018   6.652  1.00  0.00    -0.646 OA
ATOM     31  OXT GLU A   4      11.394   0.014   8.868  1.00  0.00    -0.646 OA
ENDBRANCH  28  29
BRANCH  28  32
ATOM     32  CB  GLU A   4       8.800  -1.244   8.453  1.00  0.00     0.044 C 
BRANCH  32  33
ATOM     33  CG  GLU A   4       8.179  -0.796   9.770  1.00  0.00     0.100 C 
BRANCH  33  34
ATOM     34  CD  GLU A   4       7.664  -2.009  10.585  1.00  0.00     0.185 C 
ATOM     35  OE1 GLU A   4       6.491  -2.066  10.839  1.00  0.00    -0.647 OA
ATOM     36  OE2 GLU A   4       8.565  -2.851  10.920  1.00  0.00    -0.647 OA
ENDBRANCH  33  34
ENDBRANCH  32  33
ENDBRANCH  28  32
ENDBRANCH  26  28
ENDBRANCH  19  24
ENDBRANCH  17  19
ENDBRANCH  10  15
ENDBRANCH   8  10
ENDBRANCH   5   6
BRANCH   5  37
ATOM     37  CB  LEU A   1       2.029   1.188  -0.723  1.00  0.00     0.040 C 
BRANCH  37  38
ATOM     38  CG  LEU A   1       3.545   0.919  -0.738  1.00  0.00     0.002 C 
ATOM     39  CD2 LEU A   1       4.408   2.079  -0.237  1.00  0.00     0.000 C 
ATOM     40  CD1 LEU A   1       4.036   0.141  -1.957  1.00  0.00     0.000 C 
ENDBRANCH  37  38
ENDBRANCH   5  37
ENDBRANCH   1   5
TORSDOF 17
