REMARK  26 active torsions:
REMARK  status: ('A' for Active; 'I' for Inactive)
REMARK    1  A    between atoms: N_1  and  CA_2 
REMARK    2  A    between atoms: CA_2  and  CB_5 
REMARK    3  A    between atoms: CA_2  and  C_3 
REMARK       I    between atoms: C_3  and  N_19 
REMARK    4  A    between atoms: CB_5  and  CG_6 
REMARK    5  A    between atoms: N_19  and  CA_20 
REMARK    6  A    between atoms: CA_20  and  CB_23 
REMARK    7  A    between atoms: CA_20  and  C_21 
REMARK       I    between atoms: C_21  and  N_28 
REMARK    8  A    between atoms: CB_23  and  CG_24 
REMARK    9  A    between atoms: N_28  and  CA_29 
REMARK   10  A    between atoms: CA_29  and  C_30 
REMARK   11  A    between atoms: CA_29  and  CB_32 
REMARK       I    between atoms: C_30  and  N_41 
REMARK   12  A    between atoms: CB_32  and  CG_33 
REMARK   13  A    between atoms: CG_33  and  CD_34 
REMARK   14  A    between atoms: CD_34  and  CE_35 
REMARK   15  A    between atoms: CE_35  and  NZ_36 
REMARK   16  A    between atoms: N_41  and  CA_42 
REMARK   17  A    between atoms: CA_42  and  C_43 
REMARK   18  A    between atoms: CA_42  and  CB_45 
REMARK       I    between atoms: C_43  and  N_54 
REMARK   19  A    between atoms: CB_45  and  CG_46 
REMARK   20  A    between atoms: CG_46  and  CD_47 
REMARK   21  A    between atoms: CD_47  and  CE_48 
REMARK   22  A    between atoms: CE_48  and  NZ_49 
REMARK   23  A    between atoms: N_54  and  CA_55 
REMARK   24  A    between atoms: CA_55  and  CB_58 
REMARK   25  A    between atoms: CA_55  and  C_56 
REMARK   26  A    between atoms: CB_58  and  CG_59 
ROOT
ATOM      1  N   TRP     1      26.564  28.695  32.660  1.00  0.00    -0.057 N 
ATOM      2  H1  TRP     1      27.166  29.330  33.134  1.00 99.99     0.276 HD
ATOM      3  H2  TRP     1      25.619  28.951  32.780  1.00 99.99     0.276 HD
ATOM      4  H3  TRP     1      26.643  27.798  33.072  1.00 99.99     0.276 HD
ENDROOT
BRANCH   1   5
ATOM      5  CA  TRP     1      26.935  28.636  31.212  1.00  0.00     0.259 C 
BRANCH   5   6
ATOM      6  CB  TRP     1      25.678  28.907  30.369  1.00  0.00     0.067 C 
BRANCH   6   7
ATOM      7  CG  TRP     1      25.923  28.732  28.863  1.00  0.00    -0.016 A 
ATOM      8  CD2 TRP     1      26.195  29.755  27.970  1.00  0.00    -0.001 A 
ATOM      9  CE2 TRP     1      26.540  29.151  26.774  1.00  0.00     0.042 A 
ATOM     10  CE3 TRP     1      26.197  31.137  28.093  1.00  0.00     0.014 A 
ATOM     11  CZ2 TRP     1      26.903  29.935  25.685  1.00  0.00     0.030 A 
ATOM     12  NE1 TRP     1      26.461  27.831  26.954  1.00  0.00    -0.365 N 
ATOM     13  CH2 TRP     1      26.914  31.320  25.804  1.00  0.00     0.002 A 
ATOM     14  CZ3 TRP     1      26.554  31.922  27.007  1.00  0.00     0.001 A 
ATOM     15  HE1 TRP     1      26.654  27.138  26.262  1.00 99.99     0.165 HD
ATOM     16  CD1 TRP     1      26.084  27.587  28.212  1.00  0.00     0.097 A 
ENDBRANCH   6   7
ENDBRANCH   5   6
BRANCH   5  17
ATOM     17  C   TRP     1      28.102  29.575  30.877  1.00  0.00     0.259 C 
ATOM     18  O   TRP     1      29.142  29.128  30.370  1.00  0.00    -0.271 OA
ATOM     19  N   LEU     2      28.014  30.820  31.386  1.00  0.00    -0.338 N 
ATOM     20  H   LEU     2      27.112  31.160  31.655  1.00 99.99     0.164 HD
BRANCH  19  21
ATOM     21  CA  LEU     2      29.058  31.860  31.428  1.00  0.00     0.159 C 
BRANCH  21  22
ATOM     22  CB  LEU     2      28.397  33.154  31.949  1.00  0.00     0.032 C 
BRANCH  22  23
ATOM     23  CG  LEU     2      27.219  33.701  31.138  1.00  0.00     0.002 C 
ATOM     24  CD2 LEU     2      27.683  34.271  29.795  1.00  0.00     0.000 C 
ATOM     25  CD1 LEU     2      26.531  34.801  31.949  1.00  0.00     0.000 C 
ENDBRANCH  22  23
ENDBRANCH  21  22
BRANCH  21  26
ATOM     26  C   LEU     2      30.293  31.543  32.311  1.00  0.00     0.251 C 
ATOM     27  N   LYS     3      30.701  30.274  32.311  1.00  0.00    -0.338 N 
ATOM     28  H   LYS     3      30.243  29.651  31.667  1.00 99.99     0.164 HD
ATOM     29  O   LEU     2      30.855  32.425  32.969  1.00  0.00    -0.271 OA
BRANCH  27  30
ATOM     30  CA  LYS     3      31.802  29.621  33.055  1.00  0.00     0.159 C 
BRANCH  30  31
ATOM     31  C   LYS     3      31.988  28.188  32.504  1.00  0.00     0.251 C 
ATOM     32  N   LYS     4      32.010  28.110  31.173  1.00  0.00    -0.338 N 
ATOM     33  H   LYS     4      32.108  28.960  30.652  1.00 99.99     0.164 HD
ATOM     34  O   LYS     3      31.983  27.191  33.228  1.00  0.00    -0.271 OA
BRANCH  32  35
ATOM     35  CA  LYS     4      31.996  26.891  30.317  1.00  0.00     0.159 C 
BRANCH  35  36
ATOM     36  C   LYS     4      32.221  27.298  28.855  1.00  0.00     0.251 C 
ATOM     37  N   TRP     5      31.526  28.390  28.546  1.00  0.00    -0.336 N 
ATOM     38  H   TRP     5      30.591  28.498  28.893  1.00 99.99     0.164 HD
ATOM     39  O   LYS     4      32.612  26.487  28.015  1.00  0.00    -0.271 OA
BRANCH  37  40
ATOM     40  CA  TRP     5      31.943  29.432  27.600  1.00  0.00     0.173 C 
BRANCH  40  41
ATOM     41  CB  TRP     5      30.678  29.915  26.885  1.00  0.00     0.060 C 
BRANCH  41  42
ATOM     42  CG  TRP     5      30.985  30.767  25.655  1.00  0.00    -0.016 A 
ATOM     43  CD1 TRP     5      31.456  32.009  25.633  1.00  0.00     0.097 A 
ATOM     44  NE1 TRP     5      31.649  32.392  24.367  1.00  0.00    -0.365 N 
ATOM     45  HE1 TRP     5      32.020  33.269  24.082  1.00 99.99     0.165 HD
ATOM     46  CE2 TRP     5      31.300  31.389  23.550  1.00  0.00     0.042 A 
ATOM     47  CZ2 TRP     5      31.356  31.225  22.171  1.00  0.00     0.030 A 
ATOM     48  CD2 TRP     5      30.878  30.339  24.343  1.00  0.00    -0.001 A 
ATOM     49  CH2 TRP     5      30.994  30.019  21.600  1.00  0.00     0.002 A 
ATOM     50  CZ3 TRP     5      30.581  28.953  22.403  1.00  0.00     0.001 A 
ATOM     51  CE3 TRP     5      30.522  29.120  23.782  1.00  0.00     0.014 A 
ENDBRANCH  41  42
ENDBRANCH  40  41
BRANCH  40  52
ATOM     52  C   TRP     5      32.499  30.595  28.448  1.00  0.00     0.207 C 
ATOM     53  O   TRP     5      33.663  30.986  28.214  1.00 99.99    -0.646 OA
ATOM     54  OXT TRP     5      31.835  30.881  29.477  1.00 99.99    -0.646 OA
ENDBRANCH  40  52
ENDBRANCH  37  40
ENDBRANCH  35  36
BRANCH  35  55
ATOM     55  CB  LYS     4      30.650  26.150  30.351  1.00  0.00     0.032 C 
BRANCH  55  56
ATOM     56  CG  LYS     4      30.532  25.102  31.453  1.00  0.00     0.004 C 
BRANCH  56  57
ATOM     57  CD  LYS     4      29.303  24.234  31.189  1.00  0.00     0.032 C 
BRANCH  57  58
ATOM     58  CE  LYS     4      29.184  23.127  32.235  1.00  0.00     0.206 C 
BRANCH  58  59
ATOM     59  NZ  LYS     4      28.185  22.132  31.823  1.00  0.00    -0.064 N 
ATOM     60  HZ3 LYS     4      28.474  21.719  30.959  1.00 99.99     0.275 HD
ATOM     61  HZ1 LYS     4      28.120  21.421  32.523  1.00 99.99     0.275 HD
ATOM     62  HZ2 LYS     4      27.295  22.571  31.704  1.00 99.99     0.275 HD
ENDBRANCH  58  59
ENDBRANCH  57  58
ENDBRANCH  56  57
ENDBRANCH  55  56
ENDBRANCH  35  55
ENDBRANCH  32  35
ENDBRANCH  30  31
BRANCH  30  63
ATOM     63  CB  LYS     3      31.514  29.550  34.573  1.00  0.00     0.032 C 
BRANCH  63  64
ATOM     64  CG  LYS     3      31.769  30.838  35.357  1.00  0.00     0.004 C 
BRANCH  64  65
ATOM     65  CD  LYS     3      31.513  30.635  36.851  1.00  0.00     0.032 C 
BRANCH  65  66
ATOM     66  CE  LYS     3      31.613  31.967  37.597  1.00  0.00     0.206 C 
BRANCH  66  67
ATOM     67  NZ  LYS     3      31.548  31.768  39.054  1.00  0.00    -0.064 N 
ATOM     68  HZ3 LYS     3      32.324  31.206  39.339  1.00 99.99     0.275 HD
ATOM     69  HZ2 LYS     3      30.695  31.309  39.296  1.00 99.99     0.275 HD
ATOM     70  HZ1 LYS     3      31.596  32.656  39.511  1.00 99.99     0.275 HD
ENDBRANCH  66  67
ENDBRANCH  65  66
ENDBRANCH  64  65
ENDBRANCH  63  64
ENDBRANCH  30  63
ENDBRANCH  27  30
ENDBRANCH  21  26
ENDBRANCH  19  21
ENDBRANCH   5  17
ENDBRANCH   1   5
TORSDOF 26
