REMARK WARNING: 32 MAX_TORS EXCEEDED!!!
REMARK  39 active torsions:
REMARK  status: ('A' for Active; 'I' for Inactive)
REMARK    1  A    between atoms: N_1  and  CA_2 
REMARK    2  A    between atoms: CA_2  and  CB_5 
REMARK    3  A    between atoms: CA_2  and  C_3 
REMARK       I    between atoms: C_3  and  N_19 
REMARK    4  A    between atoms: CB_5  and  CG_6 
REMARK    5  A    between atoms: N_19  and  CA_20 
REMARK    6  A    between atoms: CA_20  and  CB_23 
REMARK    7  A    between atoms: CA_20  and  C_21 
REMARK       I    between atoms: C_21  and  N_32 
REMARK    8  A    between atoms: CB_23  and  CG_24 
REMARK    9  A    between atoms: CG_24  and  CD_25 
REMARK   10  A    between atoms: CD_25  and  CE_26 
REMARK   11  A    between atoms: CE_26  and  NZ_27 
REMARK   12  A    between atoms: N_32  and  CA_33 
REMARK   13  A    between atoms: CA_33  and  C_34 
REMARK   14  A    between atoms: CA_33  and  CB_36 
REMARK       I    between atoms: C_34  and  N_40 
REMARK   15  A    between atoms: CB_36  and  OG_37 
REMARK   16  A    between atoms: N_40  and  CA_41 
REMARK   17  A    between atoms: CA_41  and  C_42 
REMARK   18  A    between atoms: CA_41  and  CB_44 
REMARK       I    between atoms: C_42  and  N_54 
REMARK   19  A    between atoms: CB_44  and  CG_45 
REMARK   20  A    between atoms: CZ_50  and  OH_51 
REMARK   21  A    between atoms: N_54  and  CA_55 
REMARK   22  A    between atoms: CA_55  and  CB_58 
REMARK   23  A    between atoms: CA_55  and  C_56 
REMARK       I    between atoms: C_56  and  N_62 
REMARK   24  A    between atoms: N_62  and  CA_63 
REMARK   25  A    between atoms: CA_63  and  CB_66 
REMARK   26  A    between atoms: CA_63  and  C_64 
REMARK       I    between atoms: C_64  and  N_79 
REMARK   27  A    between atoms: CB_66  and  CG_67 
REMARK   28  A    between atoms: CG_67  and  CD_68 
REMARK   29  A    between atoms: CD_68  and  NE_69 
REMARK       I    between atoms: NE_69  and  CZ_70 
REMARK       I    between atoms: CZ_70  and  NH2_72 
REMARK       I    between atoms: CZ_70  and  NH1_71 
REMARK   30  A    between atoms: N_79  and  CA_80 
REMARK   31  A    between atoms: CA_80  and  CB_83 
REMARK   32  A    between atoms: CA_80  and  C_81 
REMARK       I    between atoms: C_81  and  N_96 
REMARK   33  A    between atoms: CB_83  and  CG_84 
REMARK   34  A    between atoms: CG_84  and  CD_85 
REMARK   35  A    between atoms: CD_85  and  NE_86 
REMARK       I    between atoms: NE_86  and  CZ_87 
REMARK       I    between atoms: CZ_87  and  NH1_88 
REMARK   36  A    between atoms: N_96  and  CA_97 
REMARK   37  A    between atoms: CA_97  and  CB_100 
REMARK   38  A    between atoms: CA_97  and  C_98 
REMARK   39  A    between atoms: CB_100  and  CG_101 
ROOT
ATOM      1  N   TRP     1      27.890  26.371  33.901  1.00  0.00    -0.057 N 
ATOM      2  H1  TRP     1      28.628  27.039  33.915  1.00 99.99     0.276 HD
ATOM      3  H2  TRP     1      27.449  26.329  34.780  1.00 99.99     0.276 HD
ATOM      4  H3  TRP     1      28.269  25.462  33.760  1.00 99.99     0.276 HD
ENDROOT
BRANCH   1   5
ATOM      5  CA  TRP     1      26.925  26.731  32.822  1.00  0.00     0.259 C 
BRANCH   5   6
ATOM      6  CB  TRP     1      25.494  26.798  33.377  1.00  0.00     0.067 C 
BRANCH   6   7
ATOM      7  CG  TRP     1      24.457  26.629  32.258  1.00  0.00    -0.016 A 
ATOM      8  CD1 TRP     1      24.226  25.501  31.595  1.00  0.00     0.097 A 
ATOM      9  NE1 TRP     1      23.333  25.712  30.632  1.00  0.00    -0.365 N 
ATOM     10  HE1 TRP     1      23.004  25.018  29.987  1.00 99.99     0.165 HD
ATOM     11  CE2 TRP     1      22.957  26.989  30.657  1.00  0.00     0.042 A 
ATOM     12  CD2 TRP     1      23.657  27.608  31.681  1.00  0.00    -0.001 A 
ATOM     13  CZ2 TRP     1      22.065  27.728  29.882  1.00  0.00     0.030 A 
ATOM     14  CE3 TRP     1      23.475  28.960  31.940  1.00  0.00     0.014 A 
ATOM     15  CZ3 TRP     1      22.604  29.701  31.156  1.00  0.00     0.001 A 
ATOM     16  CH2 TRP     1      21.897  29.086  30.127  1.00  0.00     0.002 A 
ENDBRANCH   6   7
ENDBRANCH   5   6
BRANCH   5  17
ATOM     17  C   TRP     1      27.376  28.013  32.085  1.00  0.00     0.259 C 
ATOM     18  N   LYS     2      26.806  29.190  32.395  1.00  0.00    -0.338 N 
ATOM     19  H   LYS     2      26.023  29.200  33.017  1.00 99.99     0.164 HD
ATOM     20  O   TRP     1      28.387  27.915  31.387  1.00  0.00    -0.271 OA
BRANCH  18  21
ATOM     21  CA  LYS     2      27.114  30.537  31.840  1.00  0.00     0.159 C 
BRANCH  21  22
ATOM     22  CB  LYS     2      27.137  31.600  32.959  1.00  0.00     0.032 C 
BRANCH  22  23
ATOM     23  CG  LYS     2      25.740  31.912  33.517  1.00  0.00     0.004 C 
BRANCH  23  24
ATOM     24  CD  LYS     2      25.745  33.050  34.547  1.00  0.00     0.032 C 
BRANCH  24  25
ATOM     25  CE  LYS     2      24.337  33.307  35.103  1.00  0.00     0.206 C 
BRANCH  25  26
ATOM     26  NZ  LYS     2      24.287  34.400  36.089  1.00  0.00    -0.064 N 
ATOM     27  HZ3 LYS     2      24.578  35.259  35.665  1.00 99.99     0.275 HD
ATOM     28  HZ2 LYS     2      24.883  34.196  36.866  1.00 99.99     0.275 HD
ATOM     29  HZ1 LYS     2      23.348  34.509  36.422  1.00 99.99     0.275 HD
ENDBRANCH  25  26
ENDBRANCH  24  25
ENDBRANCH  23  24
ENDBRANCH  22  23
ENDBRANCH  21  22
BRANCH  21  30
ATOM     30  C   LYS     2      28.311  30.715  30.884  1.00  0.00     0.251 C 
ATOM     31  O   LYS     2      28.118  31.019  29.704  1.00  0.00    -0.271 OA
ATOM     32  N   SER     3      29.530  30.451  31.367  1.00  0.00    -0.336 N 
ATOM     33  H   SER     3      29.685  30.314  32.345  1.00 99.99     0.164 HD
BRANCH  32  34
ATOM     34  CA  SER     3      30.794  30.486  30.598  1.00  0.00     0.189 C 
BRANCH  34  35
ATOM     35  C   SER     3      30.827  29.627  29.324  1.00  0.00     0.254 C 
ATOM     36  O   SER     3      31.489  29.998  28.355  1.00  0.00    -0.270 OA
ATOM     37  N   TYR     4      30.166  28.463  29.325  1.00  0.00    -0.337 N 
ATOM     38  H   TYR     4      29.684  28.141  30.147  1.00 99.99     0.164 HD
BRANCH  37  39
ATOM     39  CA  TYR     4      30.065  27.587  28.138  1.00  0.00     0.164 C 
BRANCH  39  40
ATOM     40  C   TYR     4      29.164  28.163  27.039  1.00  0.00     0.251 C 
ATOM     41  N   VAL     5      27.973  28.603  27.451  1.00  0.00    -0.338 N 
ATOM     42  H   VAL     5      27.682  28.426  28.392  1.00 99.99     0.164 HD
ATOM     43  O   TYR     4      29.621  28.403  25.920  1.00  0.00    -0.271 OA
BRANCH  41  44
ATOM     44  CA  VAL     5      26.930  29.265  26.639  1.00  0.00     0.159 C 
BRANCH  44  45
ATOM     45  CB  VAL     5      25.643  29.358  27.505  1.00  0.00     0.029 C 
ATOM     46  CG2 VAL     5      25.266  28.010  28.135  1.00  0.00     0.002 C 
ATOM     47  CG1 VAL     5      24.414  29.856  26.739  1.00  0.00     0.002 C 
ENDBRANCH  44  45
BRANCH  44  48
ATOM     48  C   VAL     5      27.385  30.639  26.071  1.00  0.00     0.251 C 
ATOM     49  O   VAL     5      26.648  31.309  25.346  1.00  0.00    -0.271 OA
ATOM     50  N   ARG     6      28.543  31.117  26.531  1.00  0.00    -0.338 N 
ATOM     51  H   ARG     6      28.905  30.784  27.403  1.00 99.99     0.164 HD
BRANCH  50  52
ATOM     52  CA  ARG     6      29.249  32.302  26.003  1.00  0.00     0.159 C 
BRANCH  52  53
ATOM     53  CB  ARG     6      29.747  33.146  27.177  1.00  0.00     0.034 C 
BRANCH  53  54
ATOM     54  CG  ARG     6      28.655  33.958  27.864  1.00  0.00     0.027 C 
BRANCH  54  55
ATOM     55  CD  ARG     6      29.337  34.785  28.950  1.00  0.00     0.116 C 
BRANCH  55  56
ATOM     56  NE  ARG     6      28.374  35.674  29.608  1.00  0.00    -0.212 N 
ATOM     57  HE  ARG     6      27.447  35.648  29.238  1.00 99.99     0.178 HD
ATOM     58  CZ  ARG     6      28.657  36.520  30.603  1.00  0.00     0.666 C 
ATOM     59  NH2 ARG     6      27.694  37.229  31.172  1.00  0.00    -0.235 N 
ATOM     60  NH1 ARG     6      29.888  36.648  31.082  1.00  0.00    -0.235 N 
ATOM     61 2HH2 ARG     6      26.750  37.142  30.857  1.00 99.99     0.174 HD
ATOM     62 1HH2 ARG     6      27.921  37.855  31.913  1.00 99.99     0.174 HD
ATOM     63 1HH1 ARG     6      30.087  37.281  31.823  1.00 99.99     0.174 HD
ATOM     64 2HH1 ARG     6      30.618  36.100  30.670  1.00 99.99     0.174 HD
ENDBRANCH  55  56
ENDBRANCH  54  55
ENDBRANCH  53  54
ENDBRANCH  52  53
BRANCH  52  65
ATOM     65  C   ARG     6      30.466  32.014  25.095  1.00  0.00     0.251 C 
ATOM     66  N   ARG     7      30.814  30.735  24.972  1.00  0.00    -0.338 N 
ATOM     67  H   ARG     7      30.342  30.034  25.510  1.00 99.99     0.164 HD
ATOM     68  O   ARG     6      31.160  32.935  24.664  1.00  0.00    -0.271 OA
BRANCH  66  69
ATOM     69  CA  ARG     7      31.925  30.212  24.145  1.00  0.00     0.159 C 
BRANCH  69  70
ATOM     70  CB  ARG     7      32.855  29.360  25.010  1.00  0.00     0.034 C 
BRANCH  70  71
ATOM     71  CG  ARG     7      33.724  30.159  25.975  1.00  0.00     0.027 C 
BRANCH  71  72
ATOM     72  CD  ARG     7      34.528  29.144  26.782  1.00  0.00     0.116 C 
BRANCH  72  73
ATOM     73  NE  ARG     7      35.442  29.826  27.706  1.00  0.00    -0.212 N 
ATOM     74  CZ  ARG     7      36.254  29.224  28.580  1.00  0.00     0.666 C 
ATOM     75  NH1 ARG     7      36.300  27.901  28.694  1.00  0.00    -0.235 N 
ATOM     76  NH2 ARG     7      37.046  29.940  29.361  1.00  0.00    -0.235 N 
ATOM     77 2HH1 ARG     7      35.711  27.353  28.101  1.00 99.99     0.174 HD
ATOM     78 1HH1 ARG     7      36.910  27.468  29.349  1.00 99.99     0.174 HD
ATOM     79 1HH2 ARG     7      37.648  29.476  30.007  1.00 99.99     0.174 HD
ATOM     80 2HH2 ARG     7      37.050  30.937  29.298  1.00 99.99     0.174 HD
ATOM     81  HE  ARG     7      35.442  30.823  27.643  1.00 99.99     0.178 HD
ENDBRANCH  72  73
ENDBRANCH  71  72
ENDBRANCH  70  71
ENDBRANCH  69  70
BRANCH  69  82
ATOM     82  C   ARG     7      31.457  29.323  22.981  1.00  0.00     0.251 C 
ATOM     83  O   ARG     7      32.256  28.930  22.131  1.00  0.00    -0.271 OA
ATOM     84  N   TRP     8      30.281  28.732  23.185  1.00  0.00    -0.336 N 
ATOM     85  H   TRP     8      29.898  28.668  24.109  1.00 99.99     0.164 HD
BRANCH  84  86
ATOM     86  CA  TRP     8      29.499  28.019  22.158  1.00  0.00     0.173 C 
BRANCH  86  87
ATOM     87  CB  TRP     8      28.630  26.938  22.816  1.00  0.00     0.060 C 
BRANCH  87  88
ATOM     88  CG  TRP     8      29.329  25.930  23.738  1.00  0.00    -0.016 A 
ATOM     89  CD2 TRP     8      28.667  25.059  24.585  1.00  0.00    -0.001 A 
ATOM     90  CE3 TRP     8      27.322  24.905  24.897  1.00  0.00     0.014 A 
ATOM     91  CE2 TRP     8      29.604  24.154  25.046  1.00  0.00     0.042 A 
ATOM     92  CZ3 TRP     8      26.911  23.818  25.669  1.00  0.00     0.001 A 
ATOM     93  CH2 TRP     8      27.858  22.898  26.120  1.00  0.00     0.002 A 
ATOM     94  CZ2 TRP     8      29.198  23.071  25.817  1.00  0.00     0.030 A 
ATOM     95  NE1 TRP     8      30.779  24.497  24.510  1.00  0.00    -0.365 N 
ATOM     96  CD1 TRP     8      30.610  25.567  23.735  1.00  0.00     0.097 A 
ATOM     97  HE1 TRP     8      31.633  23.993  24.618  1.00 99.99     0.165 HD
ENDBRANCH  87  88
ENDBRANCH  86  87
BRANCH  86  98
ATOM     98  C   TRP     8      28.539  29.016  21.487  1.00  0.00     0.207 C 
ATOM     99  OXT TRP     8      27.875  29.741  22.262  1.00 99.99    -0.646 OA
ATOM    100  O   TRP     8      28.522  29.066  20.236  1.00 99.99    -0.646 OA
ENDBRANCH  86  98
ENDBRANCH  84  86
ENDBRANCH  69  82
ENDBRANCH  66  69
ENDBRANCH  52  65
ENDBRANCH  50  52
ENDBRANCH  44  48
ENDBRANCH  41  44
ENDBRANCH  39  40
BRANCH  39 101
ATOM    101  CB  TYR     4      29.603  26.171  28.508  1.00  0.00     0.056 C 
BRANCH 101 102
ATOM    102  CG  TYR     4      30.712  25.370  29.216  1.00  0.00    -0.044 A 
ATOM    103  CD2 TYR     4      31.723  24.795  28.469  1.00  0.00     0.011 A 
ATOM    104  CE2 TYR     4      32.787  24.158  29.099  1.00  0.00     0.037 A 
ATOM    105  CZ  TYR     4      32.825  24.093  30.494  1.00  0.00     0.065 A 
ATOM    106  CE1 TYR     4      31.785  24.651  31.240  1.00  0.00     0.037 A 
ATOM    107  CD1 TYR     4      30.735  25.296  30.595  1.00  0.00     0.011 A 
BRANCH 105 108
ATOM    108  OH  TYR     4      33.924  23.634  31.125  1.00  0.00    -0.361 OA
ATOM    109  HH  TYR     4      34.574  23.272  30.455  1.00 99.99     0.217 HD
ENDBRANCH 105 108
ENDBRANCH 101 102
ENDBRANCH  39 101
ENDBRANCH  37  39
ENDBRANCH  34  35
BRANCH  34 110
ATOM    110  CB  SER     3      31.951  30.018  31.492  1.00  0.00     0.169 C 
BRANCH 110 111
ATOM    111  OG  SER     3      31.801  30.523  32.824  1.00  0.00    -0.380 OA
ATOM    112  HG  SER     3      32.600  30.253  33.366  1.00 99.99     0.211 HD
ENDBRANCH 110 111
ENDBRANCH  34 110
ENDBRANCH  32  34
ENDBRANCH  21  30
ENDBRANCH  18  21
ENDBRANCH   5  17
ENDBRANCH   1   5
TORSDOF 39
