REMARK WARNING: 32 MAX_TORS EXCEEDED!!!
REMARK  98 active torsions:
REMARK  status: ('A' for Active; 'I' for Inactive)
REMARK    1  A    between atoms: N_1  and  CA_2 
REMARK    2  A    between atoms: CA_2  and  CB_5 
REMARK    3  A    between atoms: CA_2  and  C_3 
REMARK       I    between atoms: C_3  and  N_16 
REMARK    4  A    between atoms: CB_5  and  CG_6 
REMARK    5  A    between atoms: CG_6  and  CD_7 
REMARK    6  A    between atoms: CD_7  and  CE_8 
REMARK    7  A    between atoms: CE_8  and  NZ_9 
REMARK    8  A    between atoms: N_16  and  CA_17 
REMARK    9  A    between atoms: CA_17  and  CB_20 
REMARK   10  A    between atoms: CA_17  and  C_18 
REMARK       I    between atoms: C_18  and  N_24 
REMARK   11  A    between atoms: CB_20  and  OG_21 
REMARK   12  A    between atoms: N_24  and  CA_25 
REMARK   13  A    between atoms: CA_25  and  C_26 
REMARK   14  A    between atoms: CA_25  and  CB_28 
REMARK       I    between atoms: C_26  and  N_33 
REMARK   15  A    between atoms: CB_28  and  CG_29 
REMARK   16  A    between atoms: N_33  and  CA_34 
REMARK   17  A    between atoms: CA_34  and  CB_37 
REMARK   18  A    between atoms: CA_34  and  C_35 
REMARK       I    between atoms: C_35  and  N_50 
REMARK   19  A    between atoms: CB_37  and  CG_38 
REMARK   20  A    between atoms: CG_38  and  CD_39 
REMARK   21  A    between atoms: CD_39  and  NE_40 
REMARK       I    between atoms: NE_40  and  CZ_41 
REMARK       I    between atoms: CZ_41  and  NH1_42 
REMARK       I    between atoms: CZ_41  and  NH2_43 
REMARK   22  A    between atoms: CA_51  and  C_52 
REMARK       I    between atoms: C_52  and  N_57 
REMARK   23  A    between atoms: N_57  and  CA_58 
REMARK   24  A    between atoms: CA_58  and  CB_61 
REMARK   25  A    between atoms: CA_58  and  C_59 
REMARK       I    between atoms: C_59  and  N_74 
REMARK   26  A    between atoms: CB_61  and  CG_62 
REMARK   27  A    between atoms: CG_62  and  CD_63 
REMARK   28  A    between atoms: CD_63  and  NE_64 
REMARK       I    between atoms: NE_64  and  CZ_65 
REMARK       I    between atoms: CZ_65  and  NH2_67 
REMARK       I    between atoms: CZ_65  and  NH1_66 
REMARK   29  A    between atoms: N_74  and  CA_75 
REMARK   30  A    between atoms: CA_75  and  CB_78 
REMARK   31  A    between atoms: CA_75  and  C_76 
REMARK       I    between atoms: C_76  and  N_82 
REMARK   32  A    between atoms: CB_78  and  SG_79 
REMARK   33  A    between atoms: N_82  and  CA_83 
REMARK   34  A    between atoms: CA_83  and  CB_86 
REMARK   35  A    between atoms: CA_83  and  C_84 
REMARK       I    between atoms: C_84  and  N_98 
REMARK   36  A    between atoms: CB_86  and  CG_87 
REMARK   37  A    between atoms: N_98  and  CA_99 
REMARK   38  A    between atoms: CA_99  and  CB_102 
REMARK   39  A    between atoms: CA_99  and  C_100 
REMARK       I    between atoms: C_100  and  N_107 
REMARK   40  A    between atoms: CB_102  and  CG1_103 
REMARK   41  A    between atoms: N_107  and  CA_108 
REMARK   42  A    between atoms: CA_108  and  C_109 
REMARK   43  A    between atoms: CA_108  and  CB_111 
REMARK       I    between atoms: C_109  and  N_120 
REMARK   44  A    between atoms: CB_111  and  CG_112 
REMARK   45  A    between atoms: CG_112  and  CD_113 
REMARK   46  A    between atoms: CD_113  and  CE_114 
REMARK   47  A    between atoms: CE_114  and  NZ_115 
REMARK   48  A    between atoms: N_120  and  CA_121 
REMARK   49  A    between atoms: CA_121  and  C_122 
REMARK   50  A    between atoms: CA_121  and  CB_124 
REMARK       I    between atoms: C_122  and  N_129 
REMARK   51  A    between atoms: CB_124  and  CG1_125 
REMARK   52  A    between atoms: N_129  and  CA_130 
REMARK   53  A    between atoms: CA_130  and  C_131 
REMARK   54  A    between atoms: CA_130  and  CB_133 
REMARK       I    between atoms: C_131  and  N_142 
REMARK   55  A    between atoms: CB_133  and  CG_134 
REMARK   56  A    between atoms: CG_134  and  CD_135 
REMARK   57  A    between atoms: CD_135  and  CE_136 
REMARK   58  A    between atoms: CE_136  and  NZ_137 
REMARK   59  A    between atoms: N_142  and  CA_143 
REMARK   60  A    between atoms: CA_143  and  CB_146 
REMARK   61  A    between atoms: CA_143  and  C_144 
REMARK       I    between atoms: C_144  and  N_154 
REMARK   62  A    between atoms: CB_146  and  CG_147 
REMARK   63  A    between atoms: N_154  and  CA_155 
REMARK   64  A    between atoms: CA_155  and  CB_158 
REMARK   65  A    between atoms: CA_155  and  C_156 
REMARK       I    between atoms: C_156  and  N_171 
REMARK   66  A    between atoms: CB_158  and  CG_159 
REMARK   67  A    between atoms: CG_159  and  CD_160 
REMARK   68  A    between atoms: CD_160  and  NE_161 
REMARK       I    between atoms: NE_161  and  CZ_162 
REMARK       I    between atoms: CZ_162  and  NH1_163 
REMARK   69  A    between atoms: N_171  and  CA_172 
REMARK   70  A    between atoms: CA_172  and  C_173 
REMARK   71  A    between atoms: CA_172  and  CB_175 
REMARK       I    between atoms: C_173  and  N_179 
REMARK   72  A    between atoms: CB_175  and  SG_176 
REMARK   73  A    between atoms: N_179  and  CA_180 
REMARK   74  A    between atoms: CA_180  and  C_181 
REMARK   75  A    between atoms: CA_180  and  CB_183 
REMARK       I    between atoms: C_181  and  N_192 
REMARK   76  A    between atoms: CB_183  and  CG_184 
REMARK   77  A    between atoms: CG_184  and  CD_185 
REMARK   78  A    between atoms: CD_185  and  CE_186 
REMARK   79  A    between atoms: CE_186  and  NZ_187 
REMARK   80  A    between atoms: N_192  and  CA_193 
REMARK   81  A    between atoms: CA_193  and  C_194 
REMARK   82  A    between atoms: CA_193  and  CB_196 
REMARK       I    between atoms: C_194  and  N_200 
REMARK   83  A    between atoms: CB_196  and  OG_197 
REMARK   84  A    between atoms: N_200  and  CA_201 
REMARK   85  A    between atoms: CA_201  and  C_202 
REMARK   86  A    between atoms: CA_201  and  CB_204 
REMARK       I    between atoms: C_202  and  N_209 
REMARK   87  A    between atoms: CB_204  and  CG_205 
REMARK   88  A    between atoms: N_209  and  CA_210 
REMARK   89  A    between atoms: CA_210  and  C_211 
REMARK   90  A    between atoms: CA_210  and  CB_213 
REMARK       I    between atoms: C_211  and  N_222 
REMARK   91  A    between atoms: CB_213  and  CG_214 
REMARK   92  A    between atoms: CG_214  and  CD_215 
REMARK   93  A    between atoms: CD_215  and  CE_216 
REMARK   94  A    between atoms: CE_216  and  NZ_217 
REMARK   95  A    between atoms: N_222  and  CA_223 
REMARK   96  A    between atoms: CA_223  and  CB_226 
REMARK   97  A    between atoms: CA_223  and  C_224 
REMARK   98  A    between atoms: CB_226  and  CG_227 
ROOT
ATOM      1  N   LYS     1      26.361  28.369  29.931  1.00  0.00    -0.058 N 
ATOM      2  H1  LYS     1      27.355  28.251  29.910  1.00 99.99     0.276 HD
ATOM      3  H2  LYS     1      25.952  27.495  30.108  1.00 99.99     0.276 HD
ATOM      4  H3  LYS     1      26.048  28.639  29.037  1.00 99.99     0.276 HD
ENDROOT
BRANCH   1   5
ATOM      5  CA  LYS     1      26.059  29.363  30.992  1.00  0.00     0.255 C 
BRANCH   5   6
ATOM      6  CB  LYS     1      25.172  28.749  32.094  1.00  0.00     0.040 C 
BRANCH   6   7
ATOM      7  CG  LYS     1      24.825  29.712  33.245  1.00  0.00     0.004 C 
BRANCH   7   8
ATOM      8  CD  LYS     1      24.129  28.993  34.408  1.00  0.00     0.032 C 
BRANCH   8   9
ATOM      9  CE  LYS     1      23.912  29.921  35.610  1.00  0.00     0.206 C 
BRANCH   9  10
ATOM     10  NZ  LYS     1      23.284  29.221  36.744  1.00  0.00    -0.064 N 
ATOM     11  HZ1 LYS     1      23.167  29.856  37.509  1.00 99.99     0.275 HD
ATOM     12  HZ2 LYS     1      22.389  28.869  36.471  1.00 99.99     0.275 HD
ATOM     13  HZ3 LYS     1      23.865  28.461  37.037  1.00 99.99     0.275 HD
ENDBRANCH   9  10
ENDBRANCH   8   9
ENDBRANCH   7   8
ENDBRANCH   6   7
ENDBRANCH   5   6
BRANCH   5  14
ATOM     14  C   LYS     1      27.405  29.804  31.592  1.00  0.00     0.259 C 
ATOM     15  N   SER     2      27.632  31.110  31.591  1.00  0.00    -0.336 N 
ATOM     16  H   SER     2      26.972  31.781  31.257  1.00 99.99     0.164 HD
ATOM     17  O   LYS     1      28.262  28.971  31.891  1.00  0.00    -0.271 OA
BRANCH  15  18
ATOM     18  CA  SER     2      28.888  31.699  32.092  1.00  0.00     0.189 C 
BRANCH  18  19
ATOM     19  CB  SER     2      29.622  32.405  30.936  1.00  0.00     0.169 C 
BRANCH  19  20
ATOM     20  OG  SER     2      29.379  31.766  29.666  1.00  0.00    -0.380 OA
ATOM     21  HG  SER     2      30.186  31.310  29.286  1.00 99.99     0.211 HD
ENDBRANCH  19  20
ENDBRANCH  18  19
BRANCH  18  22
ATOM     22  C   SER     2      28.499  32.699  33.195  1.00  0.00     0.253 C 
ATOM     23  O   SER     2      27.316  32.966  33.402  1.00  0.00    -0.270 OA
ATOM     24  N   LEU     3      29.449  33.067  34.055  1.00  0.00    -0.337 N 
ATOM     25  H   LEU     3      30.281  32.542  34.206  1.00 99.99     0.164 HD
BRANCH  24  26
ATOM     26  CA  LEU     3      29.190  34.178  34.994  1.00  0.00     0.159 C 
BRANCH  26  27
ATOM     27  C   LEU     3      29.003  35.516  34.248  1.00  0.00     0.251 C 
ATOM     28  O   LEU     3      29.026  35.576  33.017  1.00  0.00    -0.271 OA
ATOM     29  N   ARG     4      28.723  36.569  35.008  1.00  0.00    -0.338 N 
ATOM     30  H   ARG     4      28.580  36.473  35.991  1.00 99.99     0.164 HD
BRANCH  29  31
ATOM     31  CA  ARG     4      28.632  37.944  34.486  1.00  0.00     0.160 C 
BRANCH  31  32
ATOM     32  CB  ARG     4      27.221  38.500  34.719  1.00  0.00     0.034 C 
BRANCH  32  33
ATOM     33  CG  ARG     4      26.168  37.772  33.875  1.00  0.00     0.027 C 
BRANCH  33  34
ATOM     34  CD  ARG     4      24.779  38.403  34.007  1.00  0.00     0.116 C 
BRANCH  34  35
ATOM     35  NE  ARG     4      24.244  38.237  35.370  1.00  0.00    -0.212 N 
ATOM     36  CZ  ARG     4      23.064  38.671  35.822  1.00  0.00     0.666 C 
ATOM     37  NH1 ARG     4      22.199  39.309  35.034  1.00  0.00    -0.235 N 
ATOM     38  NH2 ARG     4      22.745  38.527  37.097  1.00  0.00    -0.235 N 
ATOM     39 2HH1 ARG     4      22.437  39.459  34.078  1.00 99.99     0.174 HD
ATOM     40 1HH1 ARG     4      21.324  39.619  35.396  1.00 99.99     0.174 HD
ATOM     41 1HH2 ARG     4      21.862  38.856  37.427  1.00 99.99     0.174 HD
ATOM     42 2HH2 ARG     4      23.384  38.100  37.736  1.00 99.99     0.174 HD
ATOM     43  HE  ARG     4      24.826  37.719  35.994  1.00 99.99     0.178 HD
ENDBRANCH  34  35
ENDBRANCH  33  34
ENDBRANCH  32  33
ENDBRANCH  31  32
BRANCH  31  44
ATOM     44  C   ARG     4      29.666  38.817  35.222  1.00  0.00     0.254 C 
ATOM     45  N   PRO     5      30.332  39.772  34.546  1.00  0.00    -0.312 N 
ATOM     46  CD  PRO     5      30.133  40.097  33.118  1.00  0.00     0.105 C 
ATOM     47  CA  PRO     5      31.402  40.632  35.118  1.00  0.00     0.163 C 
ATOM     48  CG  PRO     5      30.903  41.400  32.902  1.00  0.00     0.027 C 
ATOM     49  CB  PRO     5      32.059  41.279  33.892  1.00  0.00     0.034 C 
ATOM     50  O   ARG     4      29.765  38.639  36.438  1.00  0.00    -0.270 OA
BRANCH  47  51
ATOM     51  C   PRO     5      30.999  41.648  36.212  1.00  0.00     0.251 C 
ATOM     52  N   ARG     6      30.154  41.150  37.110  1.00  0.00    -0.338 N 
ATOM     53  H   ARG     6      29.735  40.266  36.907  1.00 99.99     0.164 HD
ATOM     54  O   PRO     5      31.271  42.842  36.136  1.00  0.00    -0.271 OA
BRANCH  52  55
ATOM     55  CA  ARG     6      29.726  41.710  38.406  1.00  0.00     0.159 C 
BRANCH  55  56
ATOM     56  CB  ARG     6      28.301  42.273  38.314  1.00  0.00     0.034 C 
BRANCH  56  57
ATOM     57  CG  ARG     6      28.233  43.615  37.578  1.00  0.00     0.027 C 
BRANCH  57  58
ATOM     58  CD  ARG     6      26.839  44.246  37.678  1.00  0.00     0.116 C 
BRANCH  58  59
ATOM     59  NE  ARG     6      25.860  43.486  36.884  1.00  0.00    -0.212 N 
ATOM     60  CZ  ARG     6      24.534  43.695  36.836  1.00  0.00     0.666 C 
ATOM     61  NH2 ARG     6      23.789  43.011  35.983  1.00  0.00    -0.235 N 
ATOM     62  NH1 ARG     6      23.943  44.628  37.568  1.00  0.00    -0.235 N 
ATOM     63 2HH2 ARG     6      24.197  42.344  35.364  1.00 99.99     0.174 HD
ATOM     64 1HH2 ARG     6      22.803  43.174  35.956  1.00 99.99     0.174 HD
ATOM     65 1HH1 ARG     6      22.954  44.760  37.514  1.00 99.99     0.174 HD
ATOM     66 2HH1 ARG     6      24.497  45.200  38.170  1.00 99.99     0.174 HD
ATOM     67  HE  ARG     6      26.241  42.751  36.333  1.00 99.99     0.178 HD
ENDBRANCH  58  59
ENDBRANCH  57  58
ENDBRANCH  56  57
ENDBRANCH  55  56
BRANCH  55  68
ATOM     68  C   ARG     6      29.765  40.658  39.535  1.00  0.00     0.251 C 
ATOM     69  N   CYS     7      29.673  39.367  39.178  1.00  0.00    -0.337 N 
ATOM     70  H   CYS     7      29.670  39.082  38.218  1.00 99.99     0.164 HD
ATOM     71  O   ARG     6      29.790  41.013  40.711  1.00  0.00    -0.271 OA
BRANCH  69  72
ATOM     72  CA  CYS     7      29.619  38.237  40.124  1.00  0.00     0.170 C 
BRANCH  72  73
ATOM     73  CB  CYS     7      28.240  37.553  40.036  1.00  0.00     0.085 C 
BRANCH  73  74
ATOM     74  SG  CYS     7      26.751  38.619  40.004  1.00  0.00    -0.165 SA
ATOM     75  HG  CYS     7      27.391  39.781  40.064  1.00 99.99     0.102 HD
ENDBRANCH  73  74
ENDBRANCH  72  73
BRANCH  72  76
ATOM     76  C   CYS     7      30.708  37.191  39.783  1.00  0.00     0.252 C 
ATOM     77  O   CYS     7      30.454  36.210  39.081  1.00  0.00    -0.271 OA
ATOM     78  N   TRP     8      31.931  37.412  40.261  1.00  0.00    -0.337 N 
ATOM     79  H   TRP     8      32.189  38.256  40.730  1.00 99.99     0.164 HD
BRANCH  78  80
ATOM     80  CA  TRP     8      33.033  36.449  40.029  1.00  0.00     0.164 C 
BRANCH  80  81
ATOM     81  CB  TRP     8      34.321  37.154  39.588  1.00  0.00     0.059 C 
BRANCH  81  82
ATOM     82  CG  TRP     8      34.289  37.635  38.132  1.00  0.00    -0.016 A 
ATOM     83  CD1 TRP     8      33.451  37.272  37.169  1.00  0.00     0.097 A 
ATOM     84  NE1 TRP     8      33.729  37.949  36.052  1.00  0.00    -0.365 N 
ATOM     85  HE1 TRP     8      33.304  37.781  35.166  1.00 99.99     0.165 HD
ATOM     86  CE2 TRP     8      34.759  38.765  36.281  1.00  0.00     0.042 A 
ATOM     87  CZ2 TRP     8      35.448  39.665  35.482  1.00  0.00     0.030 A 
ATOM     88  CD2 TRP     8      35.153  38.574  37.594  1.00  0.00    -0.001 A 
ATOM     89  CH2 TRP     8      36.545  40.354  35.999  1.00  0.00     0.002 A 
ATOM     90  CZ3 TRP     8      36.951  40.136  37.307  1.00  0.00     0.001 A 
ATOM     91  CE3 TRP     8      36.250  39.245  38.110  1.00  0.00     0.014 A 
ENDBRANCH  81  82
ENDBRANCH  80  81
BRANCH  80  92
ATOM     92  C   TRP     8      33.278  35.511  41.215  1.00  0.00     0.251 C 
ATOM     93  O   TRP     8      34.198  35.664  42.018  1.00  0.00    -0.271 OA
ATOM     94  N   ILE     9      32.459  34.461  41.229  1.00  0.00    -0.338 N 
ATOM     95  H   ILE     9      31.815  34.301  40.481  1.00 99.99     0.164 HD
BRANCH  94  96
ATOM     96  CA  ILE     9      32.409  33.471  42.322  1.00  0.00     0.159 C 
BRANCH  96  97
ATOM     97  CB  ILE     9      31.042  32.744  42.301  1.00  0.00     0.029 C 
ATOM     98  CG2 ILE     9      30.941  31.746  43.467  1.00  0.00     0.002 C 
BRANCH  97  99
ATOM     99  CG1 ILE     9      29.885  33.761  42.369  1.00  0.00     0.002 C 
ATOM    100  CD  ILE     9      28.503  33.187  42.028  1.00  0.00     0.000 C 
ENDBRANCH  97  99
ENDBRANCH  96  97
BRANCH  96 101
ATOM    101  C   ILE     9      33.616  32.510  42.268  1.00  0.00     0.251 C 
ATOM    102  N   LYS    10      34.659  32.896  43.007  1.00  0.00    -0.338 N 
ATOM    103  H   LYS    10      34.664  33.814  43.407  1.00 99.99     0.164 HD
ATOM    104  O   ILE     9      33.656  31.594  41.448  1.00  0.00    -0.271 OA
BRANCH 102 105
ATOM    105  CA  LYS    10      35.884  32.111  43.293  1.00  0.00     0.159 C 
BRANCH 105 106
ATOM    106  C   LYS    10      36.659  31.582  42.056  1.00  0.00     0.251 C 
ATOM    107  O   LYS    10      37.256  30.507  42.062  1.00  0.00    -0.271 OA
ATOM    108  N   ILE    11      36.733  32.409  41.011  1.00  0.00    -0.338 N 
ATOM    109  H   ILE    11      36.316  33.314  41.028  1.00 99.99     0.164 HD
BRANCH 108 110
ATOM    110  CA  ILE    11      37.430  32.051  39.753  1.00  0.00     0.159 C 
BRANCH 110 111
ATOM    111  C   ILE    11      38.964  32.185  39.831  1.00  0.00     0.251 C 
ATOM    112  N   LYS    12      39.663  31.320  39.091  1.00  0.00    -0.338 N 
ATOM    113  H   LYS    12      39.224  30.534  38.659  1.00 99.99     0.164 HD
ATOM    114  O   ILE    11      39.486  33.059  40.521  1.00  0.00    -0.271 OA
BRANCH 112 115
ATOM    115  CA  LYS    12      41.135  31.384  38.942  1.00  0.00     0.159 C 
BRANCH 115 116
ATOM    116  C   LYS    12      41.574  31.491  37.467  1.00  0.00     0.251 C 
ATOM    117  O   LYS    12      42.080  30.549  36.859  1.00  0.00    -0.271 OA
ATOM    118  N   PHE    13      41.373  32.680  36.895  1.00  0.00    -0.337 N 
ATOM    119  H   PHE    13      41.129  33.486  37.430  1.00 99.99     0.164 HD
BRANCH 118 120
ATOM    120  CA  PHE    13      41.660  32.929  35.466  1.00  0.00     0.164 C 
BRANCH 120 121
ATOM    121  CB  PHE    13      40.868  34.140  34.944  1.00  0.00     0.056 C 
BRANCH 121 122
ATOM    122  CG  PHE    13      41.261  35.477  35.577  1.00  0.00    -0.044 A 
ATOM    123  CD1 PHE    13      42.250  36.259  34.989  1.00  0.00     0.008 A 
ATOM    124  CE1 PHE    13      42.627  37.458  35.571  1.00  0.00     0.001 A 
ATOM    125  CZ  PHE    13      42.018  37.885  36.750  1.00  0.00     0.000 A 
ATOM    126  CE2 PHE    13      41.018  37.108  37.328  1.00  0.00     0.001 A 
ATOM    127  CD2 PHE    13      40.645  35.907  36.748  1.00  0.00     0.008 A 
ENDBRANCH 121 122
ENDBRANCH 120 121
BRANCH 120 128
ATOM    128  C   PHE    13      43.159  33.069  35.148  1.00  0.00     0.251 C 
ATOM    129  N   ARG    14      43.502  32.696  33.915  1.00  0.00    -0.338 N 
ATOM    130  H   ARG    14      42.894  32.124  33.372  1.00 99.99     0.164 HD
ATOM    131  O   PHE    13      43.962  33.434  36.001  1.00  0.00    -0.271 OA
BRANCH 129 132
ATOM    132  CA  ARG    14      44.867  32.888  33.382  1.00  0.00     0.159 C 
BRANCH 132 133
ATOM    133  CB  ARG    14      45.557  31.543  33.097  1.00  0.00     0.034 C 
BRANCH 133 134
ATOM    134  CG  ARG    14      45.923  30.777  34.377  1.00  0.00     0.027 C 
BRANCH 134 135
ATOM    135  CD  ARG    14      46.865  31.584  35.280  1.00  0.00     0.116 C 
BRANCH 135 136
ATOM    136  NE  ARG    14      47.137  30.854  36.527  1.00  0.00    -0.212 N 
ATOM    137  CZ  ARG    14      46.581  31.087  37.726  1.00  0.00     0.666 C 
ATOM    138  NH1 ARG    14      45.635  31.997  37.903  1.00  0.00    -0.235 N 
ATOM    139  NH2 ARG    14      47.019  30.438  38.793  1.00  0.00    -0.235 N 
ATOM    140 2HH1 ARG    14      45.290  32.513  37.114  1.00 99.99     0.174 HD
ATOM    141 1HH1 ARG    14      45.239  32.153  38.805  1.00 99.99     0.174 HD
ATOM    142 2HH2 ARG    14      47.758  29.774  38.717  1.00 99.99     0.174 HD
ATOM    143 1HH2 ARG    14      46.601  30.625  39.681  1.00 99.99     0.174 HD
ATOM    144  HE  ARG    14      47.804  30.119  36.450  1.00 99.99     0.178 HD
ENDBRANCH 135 136
ENDBRANCH 134 135
ENDBRANCH 133 134
ENDBRANCH 132 133
BRANCH 132 145
ATOM    145  C   ARG    14      44.996  33.834  32.174  1.00  0.00     0.251 C 
ATOM    146  N   CYS    15      43.939  33.943  31.368  1.00  0.00    -0.337 N 
ATOM    147  H   CYS    15      43.061  33.526  31.583  1.00 99.99     0.164 HD
ATOM    148  O   ARG    14      46.026  34.480  32.004  1.00  0.00    -0.271 OA
BRANCH 146 149
ATOM    149  CA  CYS    15      43.937  34.772  30.144  1.00  0.00     0.170 C 
BRANCH 149 150
ATOM    150  C   CYS    15      43.822  36.285  30.401  1.00  0.00     0.252 C 
ATOM    151  N   LYS    16      44.684  37.021  29.698  1.00  0.00    -0.337 N 
ATOM    152  H   LYS    16      45.381  36.600  29.124  1.00 99.99     0.164 HD
ATOM    153  O   CYS    15      42.863  36.758  31.004  1.00  0.00    -0.271 OA
BRANCH 151 154
ATOM    154  CA  LYS    16      44.738  38.497  29.757  1.00  0.00     0.159 C 
BRANCH 154 155
ATOM    155  C   LYS    16      43.830  39.183  28.718  1.00  0.00     0.251 C 
ATOM    156  N   SER    17      42.602  38.671  28.615  1.00  0.00    -0.336 N 
ATOM    157  H   SER    17      42.318  37.896  29.181  1.00 99.99     0.164 HD
ATOM    158  O   LYS    16      44.233  40.092  27.988  1.00  0.00    -0.271 OA
BRANCH 156 159
ATOM    159  CA  SER    17      41.557  39.222  27.731  1.00  0.00     0.189 C 
BRANCH 159 160
ATOM    160  C   SER    17      40.148  38.874  28.235  1.00  0.00     0.253 C 
ATOM    161  O   SER    17      39.641  39.560  29.116  1.00  0.00    -0.270 OA
ATOM    162  N   LEU    18      39.617  37.723  27.811  1.00  0.00    -0.337 N 
ATOM    163  H   LEU    18      40.144  37.135  27.194  1.00 99.99     0.164 HD
BRANCH 162 164
ATOM    164  CA  LEU    18      38.272  37.236  28.159  1.00  0.00     0.159 C 
BRANCH 164 165
ATOM    165  C   LEU    18      38.026  37.102  29.667  1.00  0.00     0.251 C 
ATOM    166  O   LEU    18      38.937  36.881  30.458  1.00  0.00    -0.271 OA
ATOM    167  N   LYS    19      36.763  37.354  30.003  1.00  0.00    -0.338 N 
ATOM    168  H   LYS    19      36.094  37.637  29.320  1.00 99.99     0.164 HD
BRANCH 167 169
ATOM    169  CA  LYS    19      36.204  37.206  31.355  1.00  0.00     0.159 C 
BRANCH 169 170
ATOM    170  C   LYS    19      34.870  36.465  31.260  1.00  0.00     0.251 C 
ATOM    171  N   PHE    20      34.584  35.708  32.310  1.00  0.00    -0.336 N 
ATOM    172  H   PHE    20      35.233  35.588  33.061  1.00 99.99     0.164 HD
ATOM    173  O   LYS    19      34.167  36.546  30.251  1.00  0.00    -0.271 OA
BRANCH 171 174
ATOM    174  CA  PHE    20      33.292  35.016  32.474  1.00  0.00     0.172 C 
BRANCH 174 175
ATOM    175  CB  PHE    20      33.476  33.498  32.353  1.00  0.00     0.058 C 
BRANCH 175 176
ATOM    176  CG  PHE    20      34.152  33.074  31.040  1.00  0.00    -0.044 A 
ATOM    177  CD2 PHE    20      33.401  32.909  29.884  1.00  0.00     0.008 A 
ATOM    178  CE2 PHE    20      34.009  32.484  28.708  1.00  0.00     0.001 A 
ATOM    179  CZ  PHE    20      35.375  32.219  28.684  1.00  0.00     0.000 A 
ATOM    180  CE1 PHE    20      36.132  32.403  29.839  1.00  0.00     0.001 A 
ATOM    181  CD1 PHE    20      35.519  32.829  31.012  1.00  0.00     0.008 A 
ENDBRANCH 175 176
ENDBRANCH 174 175
BRANCH 174 182
ATOM    182  C   PHE    20      32.700  35.380  33.844  1.00  0.00     0.207 C 
ATOM    183  OXT PHE    20      33.477  35.355  34.820  1.00 99.99    -0.646 OA
ATOM    184  O   PHE    20      31.622  35.992  33.847  1.00 99.99    -0.646 OA
ENDBRANCH 174 182
ENDBRANCH 171 174
ENDBRANCH 169 170
BRANCH 169 185
ATOM    185  CB  LYS    19      35.953  38.580  31.992  1.00  0.00     0.032 C 
BRANCH 185 186
ATOM    186  CG  LYS    19      37.236  39.376  32.247  1.00  0.00     0.004 C 
BRANCH 186 187
ATOM    187  CD  LYS    19      38.154  38.684  33.262  1.00  0.00     0.032 C 
BRANCH 187 188
ATOM    188  CE  LYS    19      39.543  39.325  33.284  1.00  0.00     0.206 C 
BRANCH 188 189
ATOM    189  NZ  LYS    19      40.213  39.147  31.987  1.00  0.00    -0.064 N 
ATOM    190  HZ3 LYS    19      39.667  39.567  31.258  1.00 99.99     0.275 HD
ATOM    191  HZ1 LYS    19      41.121  39.562  31.999  1.00 99.99     0.275 HD
ATOM    192  HZ2 LYS    19      40.288  38.169  31.779  1.00 99.99     0.275 HD
ENDBRANCH 188 189
ENDBRANCH 187 188
ENDBRANCH 186 187
ENDBRANCH 185 186
ENDBRANCH 169 185
ENDBRANCH 167 169
ENDBRANCH 164 165
BRANCH 164 193
ATOM    193  CB  LEU    18      38.013  35.882  27.483  1.00  0.00     0.032 C 
BRANCH 193 194
ATOM    194  CG  LEU    18      37.830  35.984  25.964  1.00  0.00     0.002 C 
ATOM    195  CD1 LEU    18      37.775  34.579  25.362  1.00  0.00     0.000 C 
ATOM    196  CD2 LEU    18      36.546  36.742  25.604  1.00  0.00     0.000 C 
ENDBRANCH 193 194
ENDBRANCH 164 193
ENDBRANCH 162 164
ENDBRANCH 159 160
BRANCH 159 197
ATOM    197  CB  SER    17      41.789  38.828  26.261  1.00  0.00     0.169 C 
BRANCH 197 198
ATOM    198  OG  SER    17      41.784  37.408  26.071  1.00  0.00    -0.380 OA
ATOM    199  HG  SER    17      41.970  37.251  25.099  1.00 99.99     0.211 HD
ENDBRANCH 197 198
ENDBRANCH 159 197
ENDBRANCH 156 159
ENDBRANCH 154 155
BRANCH 154 200
ATOM    200  CB  LYS    16      46.195  38.970  29.624  1.00  0.00     0.032 C 
BRANCH 200 201
ATOM    201  CG  LYS    16      47.050  38.682  30.860  1.00  0.00     0.004 C 
BRANCH 201 202
ATOM    202  CD  LYS    16      48.438  39.296  30.664  1.00  0.00     0.032 C 
BRANCH 202 203
ATOM    203  CE  LYS    16      49.340  39.078  31.879  1.00  0.00     0.206 C 
BRANCH 203 204
ATOM    204  NZ  LYS    16      50.656  39.697  31.662  1.00  0.00    -0.064 N 
ATOM    205  HZ1 LYS    16      51.235  39.543  32.463  1.00 99.99     0.275 HD
ATOM    206  HZ2 LYS    16      51.088  39.290  30.856  1.00 99.99     0.275 HD
ATOM    207  HZ3 LYS    16      50.543  40.680  31.518  1.00 99.99     0.275 HD
ENDBRANCH 203 204
ENDBRANCH 202 203
ENDBRANCH 201 202
ENDBRANCH 200 201
ENDBRANCH 154 200
ENDBRANCH 151 154
ENDBRANCH 149 150
BRANCH 149 208
ATOM    208  CB  CYS    15      42.824  34.294  29.204  1.00  0.00     0.085 C 
BRANCH 208 209
ATOM    209  SG  CYS    15      41.157  34.248  29.962  1.00  0.00    -0.165 SA
ATOM    210  HG  CYS    15      40.529  33.804  28.878  1.00 99.99     0.102 HD
ENDBRANCH 208 209
ENDBRANCH 149 208
ENDBRANCH 146 149
ENDBRANCH 132 145
ENDBRANCH 129 132
ENDBRANCH 120 128
ENDBRANCH 118 120
ENDBRANCH 115 116
BRANCH 115 211
ATOM    211  CB  LYS    12      41.811  30.176  39.616  1.00  0.00     0.032 C 
BRANCH 211 212
ATOM    212  CG  LYS    12      41.808  30.225  41.146  1.00  0.00     0.004 C 
BRANCH 212 213
ATOM    213  CD  LYS    12      42.650  29.072  41.699  1.00  0.00     0.032 C 
BRANCH 213 214
ATOM    214  CE  LYS    12      42.715  29.099  43.228  1.00  0.00     0.206 C 
BRANCH 214 215
ATOM    215  NZ  LYS    12      43.577  28.022  43.738  1.00  0.00    -0.064 N 
ATOM    216  HZ3 LYS    12      44.504  28.139  43.382  1.00 99.99     0.275 HD
ATOM    217  HZ2 LYS    12      43.216  27.137  43.445  1.00 99.99     0.275 HD
ATOM    218  HZ1 LYS    12      43.598  28.058  44.737  1.00 99.99     0.275 HD
ENDBRANCH 214 215
ENDBRANCH 213 214
ENDBRANCH 212 213
ENDBRANCH 211 212
ENDBRANCH 115 211
ENDBRANCH 112 115
ENDBRANCH 110 111
BRANCH 110 219
ATOM    219  CB  ILE    11      36.868  32.824  38.540  1.00  0.00     0.029 C 
ATOM    220  CG2 ILE    11      35.417  32.386  38.287  1.00  0.00     0.002 C 
BRANCH 219 221
ATOM    221  CG1 ILE    11      37.007  34.351  38.679  1.00  0.00     0.002 C 
ATOM    222  CD  ILE    11      36.819  35.102  37.353  1.00  0.00     0.000 C 
ENDBRANCH 219 221
ENDBRANCH 110 219
ENDBRANCH 108 110
ENDBRANCH 105 106
BRANCH 105 223
ATOM    223  CB  LYS    10      35.516  31.005  44.302  1.00  0.00     0.032 C 
BRANCH 223 224
ATOM    224  CG  LYS    10      36.730  30.441  45.048  1.00  0.00     0.004 C 
BRANCH 224 225
ATOM    225  CD  LYS    10      36.347  29.228  45.896  1.00  0.00     0.032 C 
BRANCH 225 226
ATOM    226  CE  LYS    10      37.600  28.549  46.454  1.00  0.00     0.206 C 
BRANCH 226 227
ATOM    227  NZ  LYS    10      37.249  27.381  47.273  1.00  0.00    -0.064 N 
ATOM    228  HZ2 LYS    10      36.689  27.676  48.047  1.00 99.99     0.275 HD
ATOM    229  HZ3 LYS    10      36.735  26.726  46.719  1.00 99.99     0.275 HD
ATOM    230  HZ1 LYS    10      38.085  26.949  47.610  1.00 99.99     0.275 HD
ENDBRANCH 226 227
ENDBRANCH 225 226
ENDBRANCH 224 225
ENDBRANCH 223 224
ENDBRANCH 105 223
ENDBRANCH 102 105
ENDBRANCH  96 101
ENDBRANCH  94  96
ENDBRANCH  80  92
ENDBRANCH  78  80
ENDBRANCH  72  76
ENDBRANCH  69  72
ENDBRANCH  55  68
ENDBRANCH  52  55
ENDBRANCH  47  51
ENDBRANCH  31  44
ENDBRANCH  29  31
ENDBRANCH  26  27
BRANCH  26 231
ATOM    231  CB  LEU     3      30.280  34.223  36.082  1.00  0.00     0.032 C 
BRANCH 231 232
ATOM    232  CG  LEU     3      30.264  32.990  36.997  1.00  0.00     0.002 C 
ATOM    233  CD2 LEU     3      29.003  32.950  37.867  1.00  0.00     0.000 C 
ATOM    234  CD1 LEU     3      31.502  32.994  37.895  1.00  0.00     0.000 C 
ENDBRANCH 231 232
ENDBRANCH  26 231
ENDBRANCH  24  26
ENDBRANCH  18  22
ENDBRANCH  15  18
ENDBRANCH   5  14
ENDBRANCH   1   5
TORSDOF 98
