REMARK WARNING: 32 MAX_TORS EXCEEDED!!!
REMARK  34 active torsions:
REMARK  status: ('A' for Active; 'I' for Inactive)
REMARK    1  A    between atoms: N_1  and  CA_2 
REMARK    2  A    between atoms: CA_2  and  C_3 
REMARK       I    between atoms: C_3  and  N_8 
REMARK    3  A    between atoms: N_8  and  CA_9 
REMARK    4  A    between atoms: CA_9  and  C_10 
REMARK    5  A    between atoms: CA_9  and  CB_12 
REMARK       I    between atoms: C_10  and  N_17 
REMARK    6  A    between atoms: CB_12  and  CG_13 
REMARK    7  A    between atoms: N_17  and  CA_18 
REMARK    8  A    between atoms: CA_18  and  C_19 
REMARK    9  A    between atoms: CA_18  and  CB_21 
REMARK       I    between atoms: C_19  and  N_26 
REMARK   10  A    between atoms: CB_21  and  CG_22 
REMARK   11  A    between atoms: N_26  and  CA_27 
REMARK   12  A    between atoms: CA_27  and  C_28 
REMARK   13  A    between atoms: CA_27  and  CB_30 
REMARK       I    between atoms: C_28  and  N_39 
REMARK   14  A    between atoms: CB_30  and  CG_31 
REMARK   15  A    between atoms: CG_31  and  CD_32 
REMARK   16  A    between atoms: CD_32  and  CE_33 
REMARK   17  A    between atoms: CE_33  and  NZ_34 
REMARK   18  A    between atoms: N_39  and  CA_40 
REMARK   19  A    between atoms: CA_40  and  C_41 
REMARK   20  A    between atoms: CA_40  and  CB_43 
REMARK       I    between atoms: C_41  and  N_56 
REMARK   21  A    between atoms: CB_43  and  CG_44 
REMARK   22  A    between atoms: CG_44  and  CD_45 
REMARK   23  A    between atoms: CD_45  and  NE_46 
REMARK       I    between atoms: NE_46  and  CZ_47 
REMARK       I    between atoms: CZ_47  and  NH1_48 
REMARK   24  A    between atoms: N_56  and  CA_57 
REMARK   25  A    between atoms: CA_57  and  C_58 
REMARK   26  A    between atoms: CA_57  and  CB_60 
REMARK       I    between atoms: C_58  and  N_65 
REMARK   27  A    between atoms: CB_60  and  CG1_61 
REMARK   28  A    between atoms: N_65  and  CA_66 
REMARK   29  A    between atoms: CA_66  and  CB_69 
REMARK   30  A    between atoms: CA_66  and  C_67 
REMARK   31  A    between atoms: CB_69  and  CG_70 
REMARK   32  A    between atoms: CG_70  and  CD_71 
REMARK   33  A    between atoms: CD_71  and  CE_72 
REMARK   34  A    between atoms: CE_72  and  NZ_73 
ROOT
ATOM      1  N   GLY     1      28.694  29.095  34.221  1.00  0.00    -0.055 N 
ATOM      2  H1  GLY     1      27.903  29.152  33.612  1.00 99.99     0.276 HD
ATOM      3  H2  GLY     1      28.440  28.668  35.072  1.00 99.99     0.276 HD
ATOM      4  H3  GLY     1      28.976  30.011  34.461  1.00 99.99     0.276 HD
ENDROOT
BRANCH   1   5
ATOM      5  CA  GLY     1      29.762  28.348  33.531  1.00  0.00     0.292 C 
BRANCH   5   6
ATOM      6  C   GLY     1      29.269  27.904  32.141  1.00  0.00     0.261 C 
ATOM      7  N   LEU     2      29.471  26.615  31.852  1.00  0.00    -0.337 N 
ATOM      8  H   LEU     2      29.928  26.019  32.510  1.00 99.99     0.164 HD
ATOM      9  O   GLY     1      28.547  28.656  31.484  1.00  0.00    -0.270 OA
BRANCH   7  10
ATOM     10  CA  LEU     2      29.087  25.915  30.603  1.00  0.00     0.159 C 
BRANCH  10  11
ATOM     11  C   LEU     2      28.272  26.656  29.528  1.00  0.00     0.251 C 
ATOM     12  N   LEU     3      26.989  26.927  29.793  1.00  0.00    -0.338 N 
ATOM     13  H   LEU     3      26.538  26.550  30.599  1.00 99.99     0.164 HD
ATOM     14  O   LEU     2      28.819  26.940  28.466  1.00  0.00    -0.271 OA
BRANCH  12  15
ATOM     15  CA  LEU     3      26.097  27.723  28.917  1.00  0.00     0.159 C 
BRANCH  15  16
ATOM     16  C   LEU     3      26.795  28.828  28.099  1.00  0.00     0.251 C 
ATOM     17  O   LEU     3      26.987  28.617  26.904  1.00  0.00    -0.271 OA
ATOM     18  N   LYS     4      27.465  29.744  28.806  1.00  0.00    -0.338 N 
ATOM     19  H   LYS     4      27.526  29.673  29.803  1.00 99.99     0.164 HD
BRANCH  18  20
ATOM     20  CA  LYS     4      28.207  30.901  28.244  1.00  0.00     0.159 C 
BRANCH  20  21
ATOM     21  C   LYS     4      29.470  30.602  27.398  1.00  0.00     0.251 C 
ATOM     22  O   LYS     4      30.260  31.498  27.106  1.00  0.00    -0.271 OA
ATOM     23  N   ARG     5      29.705  29.321  27.121  1.00  0.00    -0.338 N 
ATOM     24  H   ARG     5      29.169  28.602  27.564  1.00 99.99     0.164 HD
BRANCH  23  25
ATOM     25  CA  ARG     5      30.794  28.804  26.262  1.00  0.00     0.159 C 
BRANCH  25  26
ATOM     26  C   ARG     5      30.264  27.882  25.129  1.00  0.00     0.251 C 
ATOM     27  O   ARG     5      31.026  27.280  24.377  1.00  0.00    -0.271 OA
ATOM     28  N   ILE     6      28.943  27.716  25.080  1.00  0.00    -0.338 N 
ATOM     29  H   ILE     6      28.362  28.123  25.785  1.00 99.99     0.164 HD
BRANCH  28  30
ATOM     30  CA  ILE     6      28.216  26.874  24.097  1.00  0.00     0.159 C 
BRANCH  30  31
ATOM     31  C   ILE     6      27.134  27.709  23.368  1.00  0.00     0.251 C 
ATOM     32  O   ILE     6      26.805  27.458  22.211  1.00  0.00    -0.271 OA
ATOM     33  N   LYS     7      26.502  28.597  24.134  1.00  0.00    -0.336 N 
ATOM     34  H   LYS     7      26.729  28.673  25.108  1.00 99.99     0.164 HD
BRANCH  33  35
ATOM     35  CA  LYS     7      25.468  29.565  23.704  1.00  0.00     0.168 C 
BRANCH  35  36
ATOM     36  CB  LYS     7      24.074  29.107  24.150  1.00  0.00     0.033 C 
BRANCH  36  37
ATOM     37  CG  LYS     7      23.629  27.724  23.674  1.00  0.00     0.004 C 
BRANCH  37  38
ATOM     38  CD  LYS     7      22.259  27.441  24.286  1.00  0.00     0.032 C 
BRANCH  38  39
ATOM     39  CE  LYS     7      21.724  26.062  23.906  1.00  0.00     0.206 C 
BRANCH  39  40
ATOM     40  NZ  LYS     7      20.374  25.899  24.460  1.00  0.00    -0.064 N 
ATOM     41  HZ3 LYS     7      19.778  26.608  24.083  1.00 99.99     0.275 HD
ATOM     42  HZ1 LYS     7      20.016  24.998  24.216  1.00 99.99     0.275 HD
ATOM     43  HZ2 LYS     7      20.408  25.990  25.455  1.00 99.99     0.275 HD
ENDBRANCH  39  40
ENDBRANCH  38  39
ENDBRANCH  37  38
ENDBRANCH  36  37
ENDBRANCH  35  36
BRANCH  35  44
ATOM     44  C   LYS     7      25.721  30.892  24.440  1.00  0.00     0.206 C 
ATOM     45  OXT LYS     7      25.921  30.789  25.674  1.00 99.99    -0.646 OA
ATOM     46  O   LYS     7      25.765  31.947  23.771  1.00 99.99    -0.646 OA
ENDBRANCH  35  44
ENDBRANCH  33  35
ENDBRANCH  30  31
BRANCH  30  47
ATOM     47  CB  ILE     6      27.602  25.651  24.823  1.00  0.00     0.029 C 
ATOM     48  CG2 ILE     6      26.880  24.722  23.832  1.00  0.00     0.002 C 
BRANCH  47  49
ATOM     49  CG1 ILE     6      28.677  24.856  25.591  1.00  0.00     0.002 C 
ATOM     50  CD  ILE     6      28.122  23.878  26.635  1.00  0.00     0.000 C 
ENDBRANCH  47  49
ENDBRANCH  30  47
ENDBRANCH  28  30
ENDBRANCH  25  26
BRANCH  25  51
ATOM     51  CB  ARG     5      31.739  28.043  27.202  1.00  0.00     0.034 C 
BRANCH  51  52
ATOM     52  CG  ARG     5      33.085  27.678  26.567  1.00  0.00     0.027 C 
BRANCH  52  53
ATOM     53  CD  ARG     5      33.801  26.554  27.329  1.00  0.00     0.116 C 
BRANCH  53  54
ATOM     54  NE  ARG     5      33.009  25.305  27.386  1.00  0.00    -0.212 N 
ATOM     55  CZ  ARG     5      32.685  24.477  26.385  1.00  0.00     0.666 C 
ATOM     56  NH1 ARG     5      33.036  24.699  25.125  1.00  0.00    -0.235 N 
ATOM     57  NH2 ARG     5      32.035  23.351  26.648  1.00  0.00    -0.235 N 
ATOM     58 1HH1 ARG     5      32.768  24.064  24.403  1.00 99.99     0.174 HD
ATOM     59 2HH1 ARG     5      33.532  25.534  24.897  1.00 99.99     0.174 HD
ATOM     60 1HH2 ARG     5      31.797  22.742  25.894  1.00 99.99     0.174 HD
ATOM     61 2HH2 ARG     5      31.797  23.108  27.584  1.00 99.99     0.174 HD
ATOM     62  HE  ARG     5      32.662  25.081  28.292  1.00 99.99     0.178 HD
ENDBRANCH  53  54
ENDBRANCH  52  53
ENDBRANCH  51  52
ENDBRANCH  25  51
ENDBRANCH  23  25
ENDBRANCH  20  21
BRANCH  20  63
ATOM     63  CB  LYS     4      28.601  31.848  29.387  1.00  0.00     0.032 C 
BRANCH  63  64
ATOM     64  CG  LYS     4      27.447  32.677  29.955  1.00  0.00     0.004 C 
BRANCH  64  65
ATOM     65  CD  LYS     4      28.013  33.775  30.860  1.00  0.00     0.032 C 
BRANCH  65  66
ATOM     66  CE  LYS     4      26.919  34.707  31.384  1.00  0.00     0.206 C 
BRANCH  66  67
ATOM     67  NZ  LYS     4      27.497  35.850  32.109  1.00  0.00    -0.064 N 
ATOM     68  HZ1 LYS     4      26.761  36.441  32.441  1.00 99.99     0.275 HD
ATOM     69  HZ2 LYS     4      28.039  35.525  32.884  1.00 99.99     0.275 HD
ATOM     70  HZ3 LYS     4      28.084  36.373  31.491  1.00 99.99     0.275 HD
ENDBRANCH  66  67
ENDBRANCH  65  66
ENDBRANCH  64  65
ENDBRANCH  63  64
ENDBRANCH  20  63
ENDBRANCH  18  20
ENDBRANCH  15  16
BRANCH  15  71
ATOM     71  CB  LEU     3      24.924  28.296  29.728  1.00  0.00     0.032 C 
BRANCH  71  72
ATOM     72  CG  LEU     3      23.960  27.219  30.244  1.00  0.00     0.002 C 
ATOM     73  CD2 LEU     3      23.225  26.520  29.093  1.00  0.00     0.000 C 
ATOM     74  CD1 LEU     3      22.939  27.847  31.194  1.00  0.00     0.000 C 
ENDBRANCH  71  72
ENDBRANCH  15  71
ENDBRANCH  12  15
ENDBRANCH  10  11
BRANCH  10  75
ATOM     75  CB  LEU     2      28.481  24.543  30.931  1.00  0.00     0.032 C 
BRANCH  75  76
ATOM     76  CG  LEU     2      29.519  23.578  31.524  1.00  0.00     0.002 C 
ATOM     77  CD1 LEU     2      28.827  22.294  31.983  1.00  0.00     0.000 C 
ATOM     78  CD2 LEU     2      30.623  23.240  30.515  1.00  0.00     0.000 C 
ENDBRANCH  75  76
ENDBRANCH  10  75
ENDBRANCH   7  10
ENDBRANCH   5   6
ENDBRANCH   1   5
TORSDOF 34
