REMARK  26 active torsions:
REMARK  status: ('A' for Active; 'I' for Inactive)
REMARK    1  A    between atoms: N_1  and  CA_2 
REMARK    2  A    between atoms: CA_2  and  C_3 
REMARK    3  A    between atoms: CA_2  and  CB_5 
REMARK       I    between atoms: C_3  and  N_19 
REMARK    4  A    between atoms: CB_5  and  CG_6 
REMARK    5  A    between atoms: N_19  and  CA_20 
REMARK    6  A    between atoms: CA_20  and  CB_23 
REMARK    7  A    between atoms: CA_20  and  C_21 
REMARK       I    between atoms: C_21  and  N_36 
REMARK    8  A    between atoms: CB_23  and  CG_24 
REMARK    9  A    between atoms: CG_24  and  CD_25 
REMARK   10  A    between atoms: CD_25  and  NE_26 
REMARK       I    between atoms: NE_26  and  CZ_27 
REMARK       I    between atoms: CZ_27  and  NH1_28 
REMARK   11  A    between atoms: N_36  and  CA_37 
REMARK   12  A    between atoms: CA_37  and  CB_40 
REMARK   13  A    between atoms: CA_37  and  C_38 
REMARK       I    between atoms: C_38  and  N_52 
REMARK   14  A    between atoms: CB_40  and  CG_41 
REMARK   15  A    between atoms: N_52  and  CA_53 
REMARK   16  A    between atoms: CA_53  and  C_54 
REMARK   17  A    between atoms: CA_53  and  CB_56 
REMARK       I    between atoms: C_54  and  N_64 
REMARK   18  A    between atoms: CB_56  and  CG_57 
REMARK   19  A    between atoms: N_64  and  CA_65 
REMARK   20  A    between atoms: CA_65  and  CB_68 
REMARK   21  A    between atoms: CA_65  and  C_66 
REMARK       I    between atoms: C_66  and  N_73 
REMARK   22  A    between atoms: CB_68  and  CG1_69 
REMARK   23  A    between atoms: N_73  and  CA_74 
REMARK   24  A    between atoms: CA_74  and  CB_77 
REMARK   25  A    between atoms: CA_74  and  C_75 
REMARK   26  A    between atoms: CB_77  and  CG_78 
ROOT
ATOM      1  N   TRP     1      27.540  27.792  24.743  1.00  0.00    -0.057 N 
ATOM      2  H1  TRP     1      26.880  28.110  25.423  1.00 99.99     0.276 HD
ATOM      3  H2  TRP     1      27.351  28.203  23.874  1.00 99.99     0.276 HD
ATOM      4  H3  TRP     1      27.413  26.818  24.609  1.00 99.99     0.276 HD
ENDROOT
BRANCH   1   5
ATOM      5  CA  TRP     1      28.907  28.091  25.217  1.00  0.00     0.259 C 
BRANCH   5   6
ATOM      6  C   TRP     1      28.799  28.806  26.579  1.00  0.00     0.259 C 
ATOM      7  O   TRP     1      28.339  28.121  27.486  1.00  0.00    -0.271 OA
ATOM      8  N   ARG     2      28.782  30.148  26.608  1.00  0.00    -0.338 N 
ATOM      9  H   ARG     2      28.827  30.673  25.759  1.00 99.99     0.164 HD
BRANCH   8  10
ATOM     10  CA  ARG     2      28.721  30.989  27.833  1.00  0.00     0.159 C 
BRANCH  10  11
ATOM     11  CB  ARG     2      27.955  32.300  27.583  1.00  0.00     0.034 C 
BRANCH  11  12
ATOM     12  CG  ARG     2      28.680  33.262  26.629  1.00  0.00     0.027 C 
BRANCH  12  13
ATOM     13  CD  ARG     2      30.002  33.811  27.181  1.00  0.00     0.116 C 
BRANCH  13  14
ATOM     14  NE  ARG     2      30.626  34.679  26.163  1.00  0.00    -0.212 N 
ATOM     15  HE  ARG     2      30.045  34.901  25.384  1.00 99.99     0.178 HD
ATOM     16  CZ  ARG     2      31.845  35.230  26.202  1.00  0.00     0.666 C 
ATOM     17  NH2 ARG     2      32.297  35.911  25.157  1.00  0.00    -0.235 N 
ATOM     18  NH1 ARG     2      32.668  35.068  27.230  1.00  0.00    -0.235 N 
ATOM     19 1HH2 ARG     2      33.210  36.316  25.195  1.00 99.99     0.174 HD
ATOM     20 2HH2 ARG     2      31.740  36.024  24.338  1.00 99.99     0.174 HD
ATOM     21 2HH1 ARG     2      32.371  34.532  28.018  1.00 99.99     0.174 HD
ATOM     22 1HH1 ARG     2      33.572  35.493  27.224  1.00 99.99     0.174 HD
ENDBRANCH  13  14
ENDBRANCH  12  13
ENDBRANCH  11  12
ENDBRANCH  10  11
BRANCH  10  23
ATOM     23  C   ARG     2      28.273  30.275  29.127  1.00  0.00     0.251 C 
ATOM     24  N   TRP     3      26.985  29.941  29.238  1.00  0.00    -0.337 N 
ATOM     25  H   TRP     3      26.307  30.301  28.601  1.00 99.99     0.164 HD
ATOM     26  O   ARG     2      29.131  29.906  29.919  1.00  0.00    -0.271 OA
BRANCH  24  27
ATOM     27  CA  TRP     3      26.379  29.100  30.301  1.00  0.00     0.164 C 
BRANCH  27  28
ATOM     28  CB  TRP     3      25.039  28.613  29.735  1.00  0.00     0.059 C 
BRANCH  28  29
ATOM     29  CG  TRP     3      24.135  27.988  30.797  1.00  0.00    -0.016 A 
ATOM     30  CD1 TRP     3      23.466  28.660  31.729  1.00  0.00     0.097 A 
ATOM     31  NE1 TRP     3      22.968  27.806  32.624  1.00  0.00    -0.365 N 
ATOM     32  HE1 TRP     3      22.473  28.067  33.452  1.00 99.99     0.165 HD
ATOM     33  CE2 TRP     3      23.295  26.562  32.276  1.00  0.00     0.042 A 
ATOM     34  CD2 TRP     3      24.035  26.641  31.107  1.00  0.00    -0.001 A 
ATOM     35  CZ2 TRP     3      23.080  25.326  32.873  1.00  0.00     0.030 A 
ATOM     36  CE3 TRP     3      24.559  25.496  30.525  1.00  0.00     0.014 A 
ATOM     37  CZ3 TRP     3      24.336  24.260  31.115  1.00  0.00     0.001 A 
ATOM     38  CH2 TRP     3      23.596  24.175  32.290  1.00  0.00     0.002 A 
ENDBRANCH  28  29
ENDBRANCH  27  28
BRANCH  27  39
ATOM     39  C   TRP     3      27.206  27.907  30.855  1.00  0.00     0.251 C 
ATOM     40  O   TRP     3      27.235  27.702  32.064  1.00  0.00    -0.271 OA
ATOM     41  N   PHE     4      27.920  27.190  29.987  1.00  0.00    -0.337 N 
ATOM     42  H   PHE     4      27.921  27.426  29.010  1.00 99.99     0.164 HD
BRANCH  41  43
ATOM     43  CA  PHE     4      28.817  26.055  30.325  1.00  0.00     0.164 C 
BRANCH  43  44
ATOM     44  C   PHE     4      30.222  26.419  30.856  1.00  0.00     0.251 C 
ATOM     45  O   PHE     4      31.022  25.539  31.168  1.00  0.00    -0.271 OA
ATOM     46  N   ILE     5      30.566  27.696  30.725  1.00  0.00    -0.338 N 
ATOM     47  H   ILE     5      29.930  28.353  30.313  1.00 99.99     0.164 HD
BRANCH  46  48
ATOM     48  CA  ILE     5      31.864  28.307  31.108  1.00  0.00     0.159 C 
BRANCH  48  49
ATOM     49  CB  ILE     5      32.445  28.981  29.835  1.00  0.00     0.029 C 
ATOM     50  CG2 ILE     5      33.755  29.756  30.053  1.00  0.00     0.002 C 
BRANCH  49  51
ATOM     51  CG1 ILE     5      32.588  28.005  28.649  1.00  0.00     0.002 C 
ATOM     52  CD  ILE     5      33.541  26.816  28.849  1.00  0.00     0.000 C 
ENDBRANCH  49  51
ENDBRANCH  48  49
BRANCH  48  53
ATOM     53  C   ILE     5      31.661  29.318  32.268  1.00  0.00     0.251 C 
ATOM     54  O   ILE     5      32.610  29.852  32.837  1.00  0.00    -0.271 OA
ATOM     55  N   HIS     6      30.404  29.490  32.672  1.00  0.00    -0.336 N 
ATOM     56  H   HIS     6      29.674  28.895  32.338  1.00 99.99     0.164 HD
BRANCH  55  57
ATOM     57  CA  HIS     6      29.977  30.444  33.713  1.00  0.00     0.174 C 
BRANCH  57  58
ATOM     58  CB  HIS     6      28.845  31.312  33.147  1.00  0.00     0.078 C 
BRANCH  58  59
ATOM     59  CG  HIS     6      29.294  32.401  32.165  1.00  0.00     0.057 A 
ATOM     60  ND1 HIS     6      28.507  32.973  31.255  1.00  0.00    -0.338 N 
ATOM     61  HD1 HIS     6      27.663  32.591  30.881  1.00 99.99     0.167 HD
ATOM     62  CE1 HIS     6      29.028  34.153  30.929  1.00  0.00     0.175 A 
ATOM     63  NE2 HIS     6      30.160  34.302  31.606  1.00  0.00    -0.223 NA
ATOM     64  CD2 HIS     6      30.332  33.215  32.350  1.00  0.00     0.113 A 
ENDBRANCH  58  59
ENDBRANCH  57  58
BRANCH  57  65
ATOM     65  C   HIS     6      29.477  29.709  34.966  1.00  0.00     0.207 C 
ATOM     66  OXT HIS     6      28.678  28.772  34.759  1.00 99.99    -0.646 OA
ATOM     67  O   HIS     6      29.945  30.047  36.074  1.00 99.99    -0.646 OA
ENDBRANCH  57  65
ENDBRANCH  55  57
ENDBRANCH  48  53
ENDBRANCH  46  48
ENDBRANCH  43  44
BRANCH  43  68
ATOM     68  CB  PHE     4      29.008  25.156  29.099  1.00  0.00     0.056 C 
BRANCH  68  69
ATOM     69  CG  PHE     4      27.781  24.318  28.756  1.00  0.00    -0.044 A 
ATOM     70  CD1 PHE     4      26.940  24.715  27.726  1.00  0.00     0.008 A 
ATOM     71  CE1 PHE     4      25.915  23.874  27.309  1.00  0.00     0.001 A 
ATOM     72  CZ  PHE     4      25.725  22.646  27.932  1.00  0.00     0.000 A 
ATOM     73  CE2 PHE     4      26.559  22.256  28.973  1.00  0.00     0.001 A 
ATOM     74  CD2 PHE     4      27.589  23.093  29.385  1.00  0.00     0.008 A 
ENDBRANCH  68  69
ENDBRANCH  43  68
ENDBRANCH  41  43
ENDBRANCH  27  39
ENDBRANCH  24  27
ENDBRANCH  10  23
ENDBRANCH   8  10
ENDBRANCH   5   6
BRANCH   5  75
ATOM     75  CB  TRP     1      29.746  28.859  24.178  1.00  0.00     0.067 C 
BRANCH  75  76
ATOM     76  CG  TRP     1      31.247  28.700  24.462  1.00  0.00    -0.016 A 
ATOM     77  CD1 TRP     1      31.935  27.567  24.328  1.00  0.00     0.097 A 
ATOM     78  NE1 TRP     1      33.177  27.730  24.787  1.00  0.00    -0.365 N 
ATOM     79  HE1 TRP     1      33.875  27.013  24.823  1.00 99.99     0.165 HD
ATOM     80  CE2 TRP     1      33.323  28.980  25.225  1.00  0.00     0.042 A 
ATOM     81  CZ2 TRP     1      34.375  29.649  25.844  1.00  0.00     0.030 A 
ATOM     82  CD2 TRP     1      32.108  29.624  25.036  1.00  0.00    -0.001 A 
ATOM     83  CH2 TRP     1      34.206  30.961  26.269  1.00  0.00     0.002 A 
ATOM     84  CZ3 TRP     1      32.989  31.603  26.076  1.00  0.00     0.001 A 
ATOM     85  CE3 TRP     1      31.939  30.934  25.462  1.00  0.00     0.014 A 
ENDBRANCH  75  76
ENDBRANCH   5  75
ENDBRANCH   1   5
TORSDOF 26
