REMARK  27 active torsions:
REMARK  status: ('A' for Active; 'I' for Inactive)
REMARK    1  A    between atoms: N_1  and  CA_2 
REMARK    2  A    between atoms: CA_2  and  C_3 
REMARK       I    between atoms: C_3  and  N_8 
REMARK    3  A    between atoms: N_8  and  CA_9 
REMARK    4  A    between atoms: CA_9  and  CB_12 
REMARK    5  A    between atoms: CA_9  and  C_10 
REMARK       I    between atoms: C_10  and  N_17 
REMARK    6  A    between atoms: CB_12  and  CG_13 
REMARK    7  A    between atoms: N_17  and  CA_18 
REMARK    8  A    between atoms: CA_18  and  CB_21 
REMARK    9  A    between atoms: CA_18  and  C_19 
REMARK       I    between atoms: C_19  and  N_26 
REMARK   10  A    between atoms: CB_21  and  CG_22 
REMARK   11  A    between atoms: N_26  and  CA_27 
REMARK   12  A    between atoms: CA_27  and  CB_30 
REMARK   13  A    between atoms: CA_27  and  C_28 
REMARK       I    between atoms: C_28  and  N_39 
REMARK   14  A    between atoms: CB_30  and  CG_31 
REMARK   15  A    between atoms: CG_31  and  CD_32 
REMARK   16  A    between atoms: CD_32  and  CE_33 
REMARK   17  A    between atoms: CE_33  and  NZ_34 
REMARK   18  A    between atoms: N_39  and  CA_40 
REMARK   19  A    between atoms: CA_40  and  CB_43 
REMARK   20  A    between atoms: CA_40  and  C_41 
REMARK       I    between atoms: C_41  and  N_56 
REMARK   21  A    between atoms: CB_43  and  CG_44 
REMARK   22  A    between atoms: CG_44  and  CD_45 
REMARK   23  A    between atoms: CD_45  and  NE_46 
REMARK       I    between atoms: NE_46  and  CZ_47 
REMARK       I    between atoms: CZ_47  and  NH1_48 
REMARK   24  A    between atoms: N_56  and  CA_57 
REMARK   25  A    between atoms: CA_57  and  C_58 
REMARK   26  A    between atoms: CA_57  and  CB_60 
REMARK   27  A    between atoms: CB_60  and  CG1_61 
ROOT
ATOM      1  N   GLY     1      23.443  26.045  30.480  1.00  0.00    -0.055 N 
ATOM      2  H1  GLY     1      24.393  25.938  30.777  1.00 99.99     0.276 HD
ATOM      3  H2  GLY     1      22.884  26.363  31.225  1.00 99.99     0.276 HD
ATOM      4  H3  GLY     1      23.087  25.156  30.242  1.00 99.99     0.276 HD
ENDROOT
BRANCH   1   5
ATOM      5  CA  GLY     1      23.408  26.960  29.327  1.00  0.00     0.292 C 
BRANCH   5   6
ATOM      6  C   GLY     1      24.832  27.469  29.037  1.00  0.00     0.261 C 
ATOM      7  O   GLY     1      25.771  26.674  29.021  1.00  0.00    -0.270 OA
ATOM      8  N   LEU     2      24.982  28.787  29.149  1.00  0.00    -0.337 N 
ATOM      9  H   LEU     2      24.194  29.366  29.354  1.00 99.99     0.164 HD
BRANCH   8  10
ATOM     10  CA  LEU     2      26.236  29.551  28.940  1.00  0.00     0.159 C 
BRANCH  10  11
ATOM     11  CB  LEU     2      26.176  30.838  29.776  1.00  0.00     0.032 C 
BRANCH  11  12
ATOM     12  CG  LEU     2      25.022  31.757  29.343  1.00  0.00     0.002 C 
ATOM     13  CD1 LEU     2      24.859  32.905  30.339  1.00  0.00     0.000 C 
ATOM     14  CD2 LEU     2      25.244  32.319  27.933  1.00  0.00     0.000 C 
ENDBRANCH  11  12
ENDBRANCH  10  11
BRANCH  10  15
ATOM     15  C   LEU     2      27.589  28.823  29.095  1.00  0.00     0.251 C 
ATOM     16  N   LEU     3      27.862  28.273  30.280  1.00  0.00    -0.338 N 
ATOM     17  H   LEU     3      27.295  28.481  31.074  1.00 99.99     0.164 HD
ATOM     18  O   LEU     2      28.303  28.684  28.106  1.00  0.00    -0.271 OA
BRANCH  16  19
ATOM     19  CA  LEU     3      29.058  27.460  30.624  1.00  0.00     0.159 C 
BRANCH  19  20
ATOM     20  CB  LEU     3      28.926  27.013  32.088  1.00  0.00     0.032 C 
BRANCH  20  21
ATOM     21  CG  LEU     3      28.895  28.144  33.121  1.00  0.00     0.002 C 
ATOM     22  CD1 LEU     3      28.562  27.551  34.492  1.00  0.00     0.000 C 
ATOM     23  CD2 LEU     3      30.234  28.885  33.193  1.00  0.00     0.000 C 
ENDBRANCH  20  21
ENDBRANCH  19  20
BRANCH  19  24
ATOM     24  C   LEU     3      29.392  26.214  29.764  1.00  0.00     0.251 C 
ATOM     25  N   LYS     4      28.560  25.924  28.766  1.00  0.00    -0.338 N 
ATOM     26  H   LYS     4      27.646  26.333  28.730  1.00 99.99     0.164 HD
ATOM     27  O   LEU     3      30.289  25.448  30.113  1.00  0.00    -0.271 OA
BRANCH  25  28
ATOM     28  CA  LYS     4      28.808  24.889  27.734  1.00  0.00     0.159 C 
BRANCH  28  29
ATOM     29  CB  LYS     4      27.676  23.854  27.758  1.00  0.00     0.032 C 
BRANCH  29  30
ATOM     30  CG  LYS     4      27.687  22.910  28.962  1.00  0.00     0.004 C 
BRANCH  30  31
ATOM     31  CD  LYS     4      26.649  21.811  28.720  1.00  0.00     0.032 C 
BRANCH  31  32
ATOM     32  CE  LYS     4      26.649  20.755  29.826  1.00  0.00     0.206 C 
BRANCH  32  33
ATOM     33  NZ  LYS     4      25.750  19.645  29.476  1.00  0.00    -0.064 N 
ATOM     34  HZ3 LYS     4      26.064  19.221  28.625  1.00 99.99     0.275 HD
ATOM     35  HZ2 LYS     4      24.819  19.988  29.351  1.00 99.99     0.275 HD
ATOM     36  HZ1 LYS     4      25.761  18.962  30.206  1.00 99.99     0.275 HD
ENDBRANCH  32  33
ENDBRANCH  31  32
ENDBRANCH  30  31
ENDBRANCH  29  30
ENDBRANCH  28  29
BRANCH  28  37
ATOM     37  C   LYS     4      28.925  25.446  26.295  1.00  0.00     0.251 C 
ATOM     38  N   ARG     5      28.887  26.772  26.184  1.00  0.00    -0.338 N 
ATOM     39  H   ARG     5      28.728  27.344  26.992  1.00 99.99     0.164 HD
ATOM     40  O   LYS     4      28.933  24.696  25.321  1.00  0.00    -0.271 OA
BRANCH  38  41
ATOM     41  CA  ARG     5      28.986  27.547  24.926  1.00  0.00     0.159 C 
BRANCH  41  42
ATOM     42  CB  ARG     5      27.591  28.125  24.656  1.00  0.00     0.034 C 
BRANCH  42  43
ATOM     43  CG  ARG     5      27.448  28.684  23.237  1.00  0.00     0.027 C 
BRANCH  43  44
ATOM     44  CD  ARG     5      26.387  29.789  23.150  1.00  0.00     0.116 C 
BRANCH  44  45
ATOM     45  NE  ARG     5      26.664  30.931  24.049  1.00  0.00    -0.212 N 
ATOM     46  CZ  ARG     5      27.647  31.836  23.981  1.00  0.00     0.666 C 
ATOM     47  NH2 ARG     5      27.622  32.883  24.793  1.00  0.00    -0.235 N 
ATOM     48  NH1 ARG     5      28.605  31.802  23.064  1.00  0.00    -0.235 N 
ATOM     49 2HH2 ARG     5      26.877  33.006  25.443  1.00 99.99     0.174 HD
ATOM     50 1HH2 ARG     5      28.359  33.554  24.740  1.00 99.99     0.174 HD
ATOM     51 1HH1 ARG     5      29.329  32.489  23.058  1.00 99.99     0.174 HD
ATOM     52 2HH1 ARG     5      28.645  31.032  22.429  1.00 99.99     0.174 HD
ATOM     53  HE  ARG     5      26.043  30.999  24.824  1.00 99.99     0.178 HD
ENDBRANCH  44  45
ENDBRANCH  43  44
ENDBRANCH  42  43
ENDBRANCH  41  42
BRANCH  41  54
ATOM     54  C   ARG     5      30.052  28.670  25.020  1.00  0.00     0.251 C 
ATOM     55  O   ARG     5      30.226  29.502  24.134  1.00  0.00    -0.271 OA
ATOM     56  N   ILE     6      30.709  28.719  26.173  1.00  0.00    -0.336 N 
ATOM     57  H   ILE     6      30.484  28.069  26.896  1.00 99.99     0.164 HD
BRANCH  56  58
ATOM     58  CA  ILE     6      31.884  29.559  26.493  1.00  0.00     0.168 C 
BRANCH  58  59
ATOM     59  C   ILE     6      32.957  28.549  26.939  1.00  0.00     0.206 C 
ATOM     60  OXT ILE     6      32.539  27.680  27.740  1.00 99.99    -0.646 OA
ATOM     61  O   ILE     6      34.087  28.600  26.407  1.00 99.99    -0.646 OA
ENDBRANCH  58  59
BRANCH  58  62
ATOM     62  CB  ILE     6      31.548  30.503  27.672  1.00  0.00     0.031 C 
ATOM     63  CG2 ILE     6      32.774  31.286  28.175  1.00  0.00     0.003 C 
BRANCH  62  64
ATOM     64  CG1 ILE     6      30.344  31.429  27.408  1.00  0.00     0.002 C 
ATOM     65  CD  ILE     6      30.523  32.464  26.288  1.00  0.00     0.000 C 
ENDBRANCH  62  64
ENDBRANCH  58  62
ENDBRANCH  56  58
ENDBRANCH  41  54
ENDBRANCH  38  41
ENDBRANCH  28  37
ENDBRANCH  25  28
ENDBRANCH  19  24
ENDBRANCH  16  19
ENDBRANCH  10  15
ENDBRANCH   8  10
ENDBRANCH   5   6
ENDBRANCH   1   5
TORSDOF 27
