REMARK WARNING: 32 MAX_TORS EXCEEDED!!!
REMARK  35 active torsions:
REMARK  status: ('A' for Active; 'I' for Inactive)
REMARK    1  A    between atoms: N_1  and  CA_2 
REMARK    2  A    between atoms: CA_2  and  CB_5 
REMARK    3  A    between atoms: CA_2  and  C_3 
REMARK       I    between atoms: C_3  and  N_16 
REMARK    4  A    between atoms: CB_5  and  CG_6 
REMARK    5  A    between atoms: CG_6  and  CD_7 
REMARK    6  A    between atoms: CD_7  and  CE_8 
REMARK    7  A    between atoms: CE_8  and  NZ_9 
REMARK    8  A    between atoms: N_16  and  CA_17 
REMARK    9  A    between atoms: CA_17  and  CB_20 
REMARK   10  A    between atoms: CA_17  and  C_18 
REMARK       I    between atoms: C_18  and  N_25 
REMARK   11  A    between atoms: CB_20  and  CG1_21 
REMARK   12  A    between atoms: N_25  and  CA_26 
REMARK   13  A    between atoms: CA_26  and  C_27 
REMARK   14  A    between atoms: CA_26  and  CB_29 
REMARK       I    between atoms: C_27  and  N_34 
REMARK   15  A    between atoms: CB_29  and  CG1_30 
REMARK   16  A    between atoms: N_34  and  CA_35 
REMARK   17  A    between atoms: CA_35  and  C_36 
REMARK   18  A    between atoms: CA_35  and  CB_38 
REMARK       I    between atoms: C_36  and  N_47 
REMARK   19  A    between atoms: CB_38  and  CG_39 
REMARK   20  A    between atoms: CG_39  and  CD_40 
REMARK   21  A    between atoms: CD_40  and  CE_41 
REMARK   22  A    between atoms: CE_41  and  NZ_42 
REMARK   23  A    between atoms: N_47  and  CA_48 
REMARK   24  A    between atoms: CA_48  and  CB_51 
REMARK   25  A    between atoms: CA_48  and  C_49 
REMARK       I    between atoms: C_49  and  N_55 
REMARK   26  A    between atoms: N_55  and  CA_56 
REMARK   27  A    between atoms: CA_56  and  C_57 
REMARK   28  A    between atoms: CA_56  and  CB_59 
REMARK       I    between atoms: C_57  and  N_63 
REMARK   29  A    between atoms: N_63  and  CA_64 
REMARK   30  A    between atoms: CA_64  and  CB_67 
REMARK   31  A    between atoms: CA_64  and  C_65 
REMARK   32  A    between atoms: CB_67  and  CG_68 
REMARK   33  A    between atoms: CG_68  and  CD_69 
REMARK   34  A    between atoms: CD_69  and  CE_70 
REMARK   35  A    between atoms: CE_70  and  NZ_71 
ROOT
ATOM      1  N   LYS     1      27.310  34.041  31.482  1.00  0.00    -0.058 N 
ATOM      2  H1  LYS     1      28.260  33.788  31.662  1.00 99.99     0.276 HD
ATOM      3  H2  LYS     1      27.242  35.018  31.403  1.00 99.99     0.276 HD
ATOM      4  H3  LYS     1      26.772  33.808  32.285  1.00 99.99     0.276 HD
ENDROOT
BRANCH   1   5
ATOM      5  CA  LYS     1      26.832  33.322  30.279  1.00  0.00     0.255 C 
BRANCH   5   6
ATOM      6  CB  LYS     1      26.172  34.251  29.232  1.00  0.00     0.040 C 
BRANCH   6   7
ATOM      7  CG  LYS     1      25.330  33.471  28.206  1.00  0.00     0.004 C 
BRANCH   7   8
ATOM      8  CD  LYS     1      24.459  34.363  27.306  1.00  0.00     0.032 C 
BRANCH   8   9
ATOM      9  CE  LYS     1      23.621  33.527  26.326  1.00  0.00     0.206 C 
BRANCH   9  10
ATOM     10  NZ  LYS     1      22.711  34.340  25.499  1.00  0.00    -0.064 N 
ATOM     11  HZ3 LYS     1      23.232  35.003  24.961  1.00 99.99     0.275 HD
ATOM     12  HZ2 LYS     1      22.058  34.824  26.083  1.00 99.99     0.275 HD
ATOM     13  HZ1 LYS     1      22.203  33.744  24.874  1.00 99.99     0.275 HD
ENDBRANCH   9  10
ENDBRANCH   8   9
ENDBRANCH   7   8
ENDBRANCH   6   7
ENDBRANCH   5   6
BRANCH   5  14
ATOM     14  C   LYS     1      27.991  32.460  29.729  1.00  0.00     0.259 C 
ATOM     15  N   ILE     2      28.916  33.069  28.971  1.00  0.00    -0.338 N 
ATOM     16  H   ILE     2      28.815  34.037  28.744  1.00 99.99     0.164 HD
ATOM     17  O   LYS     1      28.187  31.387  30.293  1.00  0.00    -0.271 OA
BRANCH  15  18
ATOM     18  CA  ILE     2      30.121  32.452  28.348  1.00  0.00     0.159 C 
BRANCH  18  19
ATOM     19  CB  ILE     2      31.315  33.438  28.321  1.00  0.00     0.029 C 
ATOM     20  CG2 ILE     2      32.541  32.816  27.622  1.00  0.00     0.002 C 
BRANCH  19  21
ATOM     21  CG1 ILE     2      30.905  34.732  27.591  1.00  0.00     0.002 C 
ATOM     22  CD  ILE     2      31.892  35.902  27.714  1.00  0.00     0.000 C 
ENDBRANCH  19  21
ENDBRANCH  18  19
BRANCH  18  23
ATOM     23  C   ILE     2      30.490  31.031  28.837  1.00  0.00     0.251 C 
ATOM     24  O   ILE     2      30.271  30.083  28.087  1.00  0.00    -0.271 OA
ATOM     25  N   ILE     3      31.005  30.897  30.068  1.00  0.00    -0.338 N 
ATOM     26  H   ILE     3      31.264  31.694  30.611  1.00 99.99     0.164 HD
BRANCH  25  27
ATOM     27  CA  ILE     3      31.325  29.598  30.716  1.00  0.00     0.159 C 
BRANCH  27  28
ATOM     28  C   ILE     3      30.312  28.487  30.347  1.00  0.00     0.251 C 
ATOM     29  N   LYS     4      29.032  28.730  30.641  1.00  0.00    -0.338 N 
ATOM     30  H   LYS     4      28.749  29.643  30.944  1.00 99.99     0.164 HD
ATOM     31  O   ILE     3      30.666  27.664  29.509  1.00  0.00    -0.271 OA
BRANCH  29  32
ATOM     32  CA  LYS     4      27.886  27.809  30.422  1.00  0.00     0.159 C 
BRANCH  32  33
ATOM     33  C   LYS     4      27.504  27.473  28.958  1.00  0.00     0.251 C 
ATOM     34  O   LYS     4      26.428  26.941  28.691  1.00  0.00    -0.271 OA
ATOM     35  N   VAL     5      28.315  27.948  28.019  1.00  0.00    -0.338 N 
ATOM     36  H   VAL     5      29.039  28.594  28.265  1.00 99.99     0.164 HD
BRANCH  35  37
ATOM     37  CA  VAL     5      28.185  27.714  26.562  1.00  0.00     0.159 C 
BRANCH  37  38
ATOM     38  CB  VAL     5      27.907  29.064  25.854  1.00  0.00     0.029 C 
ATOM     39  CG1 VAL     5      27.653  28.907  24.351  1.00  0.00     0.002 C 
ATOM     40  CG2 VAL     5      26.707  29.811  26.454  1.00  0.00     0.002 C 
ENDBRANCH  37  38
BRANCH  37  41
ATOM     41  C   VAL     5      29.447  27.009  25.997  1.00  0.00     0.251 C 
ATOM     42  O   VAL     5      29.404  26.385  24.940  1.00  0.00    -0.271 OA
ATOM     43  N   VAL     6      30.555  27.100  26.734  1.00  0.00    -0.338 N 
ATOM     44  H   VAL     6      30.539  27.570  27.617  1.00 99.99     0.164 HD
BRANCH  43  45
ATOM     45  CA  VAL     6      31.894  26.584  26.355  1.00  0.00     0.159 C 
BRANCH  45  46
ATOM     46  C   VAL     6      32.303  25.376  27.237  1.00  0.00     0.251 C 
ATOM     47  O   VAL     6      33.107  24.539  26.836  1.00  0.00    -0.271 OA
ATOM     48  N   LYS     7      31.817  25.383  28.477  1.00  0.00    -0.336 N 
ATOM     49  H   LYS     7      31.213  26.128  28.774  1.00 99.99     0.164 HD
BRANCH  48  50
ATOM     50  CA  LYS     7      32.042  24.366  29.530  1.00  0.00     0.168 C 
BRANCH  50  51
ATOM     51  CB  LYS     7      33.122  24.828  30.515  1.00  0.00     0.033 C 
BRANCH  51  52
ATOM     52  CG  LYS     7      34.494  25.136  29.916  1.00  0.00     0.004 C 
BRANCH  52  53
ATOM     53  CD  LYS     7      35.390  25.637  31.045  1.00  0.00     0.032 C 
BRANCH  53  54
ATOM     54  CE  LYS     7      36.780  26.025  30.549  1.00  0.00     0.206 C 
BRANCH  54  55
ATOM     55  NZ  LYS     7      37.606  26.407  31.702  1.00  0.00    -0.064 N 
ATOM     56  HZ1 LYS     7      38.519  26.666  31.389  1.00 99.99     0.275 HD
ATOM     57  HZ2 LYS     7      37.179  27.176  32.177  1.00 99.99     0.275 HD
ATOM     58  HZ3 LYS     7      37.673  25.628  32.325  1.00 99.99     0.275 HD
ENDBRANCH  54  55
ENDBRANCH  53  54
ENDBRANCH  52  53
ENDBRANCH  51  52
ENDBRANCH  50  51
BRANCH  50  59
ATOM     59  C   LYS     7      30.757  24.227  30.368  1.00  0.00     0.206 C 
ATOM     60  O   LYS     7      30.309  23.080  30.579  1.00 99.99    -0.646 OA
ATOM     61  OXT LYS     7      30.242  25.304  30.751  1.00 99.99    -0.646 OA
ENDBRANCH  50  59
ENDBRANCH  48  50
ENDBRANCH  45  46
BRANCH  45  62
ATOM     62  CB  VAL     6      32.921  27.739  26.465  1.00  0.00     0.029 C 
ATOM     63  CG1 VAL     6      34.329  27.335  26.013  1.00  0.00     0.002 C 
ATOM     64  CG2 VAL     6      32.505  28.975  25.654  1.00  0.00     0.002 C 
ENDBRANCH  45  62
ENDBRANCH  43  45
ENDBRANCH  37  41
ENDBRANCH  35  37
ENDBRANCH  32  33
BRANCH  32  65
ATOM     65  CB  LYS     4      26.641  28.394  31.103  1.00  0.00     0.032 C 
BRANCH  65  66
ATOM     66  CG  LYS     4      26.626  28.301  32.629  1.00  0.00     0.004 C 
BRANCH  66  67
ATOM     67  CD  LYS     4      25.220  28.659  33.119  1.00  0.00     0.032 C 
BRANCH  67  68
ATOM     68  CE  LYS     4      25.071  28.485  34.631  1.00  0.00     0.206 C 
BRANCH  68  69
ATOM     69  NZ  LYS     4      23.669  28.654  35.039  1.00  0.00    -0.064 N 
ATOM     70  HZ1 LYS     4      23.591  28.536  36.030  1.00 99.99     0.275 HD
ATOM     71  HZ2 LYS     4      23.346  29.566  34.785  1.00 99.99     0.275 HD
ATOM     72  HZ3 LYS     4      23.105  27.965  34.582  1.00 99.99     0.275 HD
ENDBRANCH  68  69
ENDBRANCH  67  68
ENDBRANCH  66  67
ENDBRANCH  65  66
ENDBRANCH  32  65
ENDBRANCH  29  32
ENDBRANCH  27  28
BRANCH  27  73
ATOM     73  CB  ILE     3      31.499  29.763  32.246  1.00  0.00     0.029 C 
ATOM     74  CG2 ILE     3      31.840  28.416  32.913  1.00  0.00     0.002 C 
BRANCH  73  75
ATOM     75  CG1 ILE     3      32.597  30.799  32.551  1.00  0.00     0.002 C 
ATOM     76  CD  ILE     3      32.664  31.268  34.012  1.00  0.00     0.000 C 
ENDBRANCH  73  75
ENDBRANCH  27  73
ENDBRANCH  25  27
ENDBRANCH  18  23
ENDBRANCH  15  18
ENDBRANCH   5  14
ENDBRANCH   1   5
TORSDOF 35
