REMARK  31 active torsions:
REMARK  status: ('A' for Active; 'I' for Inactive)
REMARK    1  A    between atoms: N_1  and  CA_2 
REMARK    2  A    between atoms: CA_2  and  C_3 
REMARK    3  A    between atoms: CA_2  and  CB_5 
REMARK       I    between atoms: C_3  and  N_20 
REMARK    4  A    between atoms: CB_5  and  CG_6 
REMARK    5  A    between atoms: CG_6  and  CD_7 
REMARK    6  A    between atoms: CD_7  and  NE_8 
REMARK       I    between atoms: NE_8  and  CZ_9 
REMARK       I    between atoms: CZ_9  and  NH1_10 
REMARK       I    between atoms: CZ_9  and  NH2_11 
REMARK    7  A    between atoms: N_20  and  CA_21 
REMARK    8  A    between atoms: CA_21  and  CB_24 
REMARK    9  A    between atoms: CA_21  and  C_22 
REMARK       I    between atoms: C_22  and  N_37 
REMARK   10  A    between atoms: CB_24  and  CG_25 
REMARK   11  A    between atoms: CG_25  and  CD_26 
REMARK   12  A    between atoms: CD_26  and  NE_27 
REMARK       I    between atoms: NE_27  and  CZ_28 
REMARK       I    between atoms: CZ_28  and  NH2_30 
REMARK       I    between atoms: CZ_28  and  NH1_29 
REMARK   13  A    between atoms: N_37  and  CA_38 
REMARK   14  A    between atoms: CA_38  and  CB_41 
REMARK   15  A    between atoms: CA_38  and  C_39 
REMARK       I    between atoms: C_39  and  N_53 
REMARK   16  A    between atoms: CB_41  and  CG_42 
REMARK   17  A    between atoms: N_53  and  CA_54 
REMARK   18  A    between atoms: CA_54  and  C_55 
REMARK   19  A    between atoms: CA_54  and  CB_57 
REMARK       I    between atoms: C_55  and  N_65 
REMARK   20  A    between atoms: CB_57  and  CG_58 
REMARK   21  A    between atoms: CG_58  and  CD_59 
REMARK       I    between atoms: CD_59  and  NE2_61 
REMARK   22  A    between atoms: N_65  and  CA_66 
REMARK   23  A    between atoms: CA_66  and  C_67 
REMARK   24  A    between atoms: CA_66  and  CB_69 
REMARK       I    between atoms: C_67  and  N_81 
REMARK   25  A    between atoms: CB_69  and  CG_70 
REMARK   26  A    between atoms: N_81  and  CA_82 
REMARK   27  A    between atoms: CA_82  and  CB_85 
REMARK   28  A    between atoms: CA_82  and  C_83 
REMARK   29  A    between atoms: CB_85  and  CG_86 
REMARK   30  A    between atoms: CG_86  and  CD_87 
REMARK   31  A    between atoms: CD_87  and  NE_88 
REMARK       I    between atoms: NE_88  and  CZ_89 
REMARK       I    between atoms: CZ_89  and  NH1_90 
ROOT
ATOM      1  N   ARG     1      28.748  27.147  33.420  1.00  0.00    -0.058 N 
ATOM      2  H1  ARG     1      27.854  27.467  33.113  1.00 99.99     0.276 HD
ATOM      3  H2  ARG     1      28.643  26.481  34.144  1.00 99.99     0.276 HD
ATOM      4  H3  ARG     1      29.230  27.908  33.858  1.00 99.99     0.276 HD
ENDROOT
BRANCH   1   5
ATOM      5  CA  ARG     1      29.531  26.629  32.267  1.00  0.00     0.255 C 
BRANCH   5   6
ATOM      6  C   ARG     1      28.796  26.674  30.901  1.00  0.00     0.259 C 
ATOM      7  O   ARG     1      29.148  27.533  30.100  1.00  0.00    -0.271 OA
ATOM      8  N   ARG     2      27.702  25.921  30.692  1.00  0.00    -0.338 N 
ATOM      9  H   ARG     2      27.403  25.228  31.348  1.00 99.99     0.164 HD
BRANCH   8  10
ATOM     10  CA  ARG     2      26.970  25.888  29.396  1.00  0.00     0.159 C 
BRANCH  10  11
ATOM     11  CB  ARG     2      25.703  25.019  29.526  1.00  0.00     0.034 C 
BRANCH  11  12
ATOM     12  CG  ARG     2      24.870  24.838  28.244  1.00  0.00     0.027 C 
BRANCH  12  13
ATOM     13  CD  ARG     2      25.620  24.135  27.106  1.00  0.00     0.116 C 
BRANCH  13  14
ATOM     14  NE  ARG     2      24.724  23.979  25.944  1.00  0.00    -0.212 N 
ATOM     15  HE  ARG     2      23.779  24.258  26.095  1.00 99.99     0.178 HD
ATOM     16  CZ  ARG     2      25.058  23.521  24.732  1.00  0.00     0.666 C 
ATOM     17  NH2 ARG     2      24.132  23.370  23.793  1.00  0.00    -0.235 N 
ATOM     18  NH1 ARG     2      26.301  23.168  24.432  1.00  0.00    -0.235 N 
ATOM     19 1HH2 ARG     2      24.402  23.032  22.893  1.00 99.99     0.174 HD
ATOM     20 2HH2 ARG     2      23.177  23.590  23.976  1.00 99.99     0.174 HD
ATOM     21 2HH1 ARG     2      27.013  23.264  25.125  1.00 99.99     0.174 HD
ATOM     22 1HH1 ARG     2      26.530  22.839  23.518  1.00 99.99     0.174 HD
ENDBRANCH  13  14
ENDBRANCH  12  13
ENDBRANCH  11  12
ENDBRANCH  10  11
BRANCH  10  23
ATOM     23  C   ARG     2      26.655  27.264  28.763  1.00  0.00     0.251 C 
ATOM     24  O   ARG     2      26.929  27.459  27.582  1.00  0.00    -0.271 OA
ATOM     25  N   TRP     3      26.236  28.242  29.570  1.00  0.00    -0.337 N 
ATOM     26  H   TRP     3      25.917  28.057  30.496  1.00 99.99     0.164 HD
BRANCH  25  27
ATOM     27  CA  TRP     3      26.029  29.643  29.129  1.00  0.00     0.164 C 
BRANCH  27  28
ATOM     28  CB  TRP     3      25.586  30.453  30.356  1.00  0.00     0.059 C 
BRANCH  28  29
ATOM     29  CG  TRP     3      25.202  31.899  30.029  1.00  0.00    -0.016 A 
ATOM     30  CD2 TRP     3      26.049  32.995  30.057  1.00  0.00    -0.001 A 
ATOM     31  CE2 TRP     3      25.329  34.067  29.556  1.00  0.00     0.042 A 
ATOM     32  CE3 TRP     3      27.365  33.154  30.460  1.00  0.00     0.014 A 
ATOM     33  CZ2 TRP     3      25.942  35.311  29.440  1.00  0.00     0.030 A 
ATOM     34  NE1 TRP     3      24.109  33.621  29.267  1.00  0.00    -0.365 N 
ATOM     35  CH2 TRP     3      27.269  35.470  29.824  1.00  0.00     0.002 A 
ATOM     36  CZ3 TRP     3      27.978  34.393  30.346  1.00  0.00     0.001 A 
ATOM     37  HE1 TRP     3      23.364  34.170  28.887  1.00 99.99     0.165 HD
ATOM     38  CD1 TRP     3      24.032  32.320  29.557  1.00  0.00     0.097 A 
ENDBRANCH  28  29
ENDBRANCH  27  28
BRANCH  27  39
ATOM     39  C   TRP     3      27.266  30.277  28.446  1.00  0.00     0.251 C 
ATOM     40  O   TRP     3      27.147  30.890  27.390  1.00  0.00    -0.271 OA
ATOM     41  N   GLN     4      28.455  29.960  28.959  1.00  0.00    -0.338 N 
ATOM     42  H   GLN     4      28.538  29.304  29.712  1.00 99.99     0.164 HD
BRANCH  41  43
ATOM     43  CA  GLN     4      29.769  30.404  28.436  1.00  0.00     0.160 C 
BRANCH  43  44
ATOM     44  C   GLN     4      30.292  29.587  27.232  1.00  0.00     0.251 C 
ATOM     45  N   TRP     5      29.519  28.580  26.825  1.00  0.00    -0.337 N 
ATOM     46  H   TRP     5      28.668  28.354  27.300  1.00 99.99     0.164 HD
ATOM     47  O   GLN     4      31.435  29.767  26.812  1.00  0.00    -0.271 OA
BRANCH  45  48
ATOM     48  CA  TRP     5      29.820  27.673  25.696  1.00  0.00     0.164 C 
BRANCH  48  49
ATOM     49  C   TRP     5      28.655  27.564  24.683  1.00  0.00     0.251 C 
ATOM     50  O   TRP     5      28.564  26.604  23.919  1.00  0.00    -0.271 OA
ATOM     51  N   ARG     6      27.784  28.574  24.669  1.00  0.00    -0.336 N 
ATOM     52  H   ARG     6      27.907  29.365  25.269  1.00 99.99     0.164 HD
BRANCH  51  53
ATOM     53  CA  ARG     6      26.560  28.624  23.831  1.00  0.00     0.168 C 
BRANCH  53  54
ATOM     54  CB  ARG     6      25.472  27.723  24.446  1.00  0.00     0.035 C 
BRANCH  54  55
ATOM     55  CG  ARG     6      24.154  27.775  23.658  1.00  0.00     0.027 C 
BRANCH  55  56
ATOM     56  CD  ARG     6      22.949  28.256  24.481  1.00  0.00     0.116 C 
BRANCH  56  57
ATOM     57  NE  ARG     6      23.169  29.511  25.233  1.00  0.00    -0.212 N 
ATOM     58  HE  ARG     6      23.686  29.402  26.080  1.00 99.99     0.178 HD
ATOM     59  CZ  ARG     6      22.886  30.763  24.857  1.00  0.00     0.666 C 
ATOM     60  NH2 ARG     6      22.646  31.673  25.791  1.00  0.00    -0.235 N 
ATOM     61  NH1 ARG     6      22.573  31.089  23.609  1.00  0.00    -0.235 N 
ATOM     62 1HH2 ARG     6      22.415  32.607  25.524  1.00 99.99     0.174 HD
ATOM     63 2HH2 ARG     6      22.693  31.422  26.755  1.00 99.99     0.174 HD
ATOM     64 2HH1 ARG     6      22.614  30.394  22.895  1.00 99.99     0.174 HD
ATOM     65 1HH1 ARG     6      22.365  32.037  23.377  1.00 99.99     0.174 HD
ENDBRANCH  56  57
ENDBRANCH  55  56
ENDBRANCH  54  55
ENDBRANCH  53  54
BRANCH  53  66
ATOM     66  C   ARG     6      26.035  30.068  23.735  1.00  0.00     0.206 C 
ATOM     67  OXT ARG     6      25.940  30.675  24.820  1.00 99.99    -0.646 OA
ATOM     68  O   ARG     6      25.822  30.541  22.597  1.00 99.99    -0.646 OA
ENDBRANCH  53  66
ENDBRANCH  51  53
ENDBRANCH  48  49
BRANCH  48  69
ATOM     69  CB  TRP     5      30.088  26.267  26.250  1.00  0.00     0.059 C 
BRANCH  69  70
ATOM     70  CG  TRP     5      31.349  26.011  27.080  1.00  0.00    -0.016 A 
ATOM     71  CD2 TRP     5      31.580  24.800  27.708  1.00  0.00    -0.001 A 
ATOM     72  CE3 TRP     5      30.756  23.708  27.941  1.00  0.00     0.014 A 
ATOM     73  CE2 TRP     5      32.932  24.742  27.997  1.00  0.00     0.042 A 
ATOM     74  CZ3 TRP     5      31.291  22.541  28.468  1.00  0.00     0.001 A 
ATOM     75  CH2 TRP     5      32.646  22.478  28.774  1.00  0.00     0.002 A 
ATOM     76  CZ2 TRP     5      33.467  23.577  28.538  1.00  0.00     0.030 A 
ATOM     77  NE1 TRP     5      33.472  25.882  27.570  1.00  0.00    -0.365 N 
ATOM     78  HE1 TRP     5      34.446  26.108  27.593  1.00 99.99     0.165 HD
ATOM     79  CD1 TRP     5      32.519  26.648  27.034  1.00  0.00     0.097 A 
ENDBRANCH  69  70
ENDBRANCH  48  69
ENDBRANCH  45  48
ENDBRANCH  43  44
BRANCH  43  80
ATOM     80  CB  GLN     4      30.803  30.286  29.560  1.00  0.00     0.042 C 
BRANCH  80  81
ATOM     81  CG  GLN     4      30.501  31.170  30.770  1.00  0.00     0.090 C 
BRANCH  81  82
ATOM     82  CD  GLN     4      31.389  30.795  31.957  1.00  0.00     0.227 C 
ATOM     83  OE1 GLN     4      31.521  29.647  32.358  1.00  0.00    -0.273 OA
ATOM     84  NE2 GLN     4      31.880  31.804  32.637  1.00  0.00    -0.369 N 
ATOM     85 1HE2 GLN     4      32.465  31.581  33.411  1.00 99.99     0.159 HD
ATOM     86 2HE2 GLN     4      31.678  32.740  32.367  1.00 99.99     0.159 HD
ENDBRANCH  81  82
ENDBRANCH  80  81
ENDBRANCH  43  80
ENDBRANCH  41  43
ENDBRANCH  27  39
ENDBRANCH  25  27
ENDBRANCH  10  23
ENDBRANCH   8  10
ENDBRANCH   5   6
BRANCH   5  87
ATOM     87  CB  ARG     1      30.132  25.236  32.531  1.00  0.00     0.042 C 
BRANCH  87  88
ATOM     88  CG  ARG     1      31.263  24.843  31.562  1.00  0.00     0.027 C 
BRANCH  88  89
ATOM     89  CD  ARG     1      32.582  25.591  31.802  1.00  0.00     0.116 C 
BRANCH  89  90
ATOM     90  NE  ARG     1      32.816  26.677  30.825  1.00  0.00    -0.212 N 
ATOM     91  HE  ARG     1      32.172  26.722  30.064  1.00 99.99     0.178 HD
ATOM     92  CZ  ARG     1      33.846  27.534  30.837  1.00  0.00     0.666 C 
ATOM     93  NH1 ARG     1      34.807  27.466  31.752  1.00  0.00    -0.235 N 
ATOM     94  NH2 ARG     1      33.916  28.515  29.946  1.00  0.00    -0.235 N 
ATOM     95 2HH1 ARG     1      34.759  26.750  32.444  1.00 99.99     0.174 HD
ATOM     96 1HH1 ARG     1      35.559  28.122  31.751  1.00 99.99     0.174 HD
ATOM     97 2HH2 ARG     1      33.199  28.634  29.262  1.00 99.99     0.174 HD
ATOM     98 1HH2 ARG     1      34.681  29.156  29.978  1.00 99.99     0.174 HD
ENDBRANCH  89  90
ENDBRANCH  88  89
ENDBRANCH  87  88
ENDBRANCH   5  87
ENDBRANCH   1   5
TORSDOF 31
