REMARK  29 active torsions:
REMARK  status: ('A' for Active; 'I' for Inactive)
REMARK    1  A    between atoms: N_1  and  CA_2 
REMARK    2  A    between atoms: CA_2  and  C_3 
REMARK    3  A    between atoms: CA_2  and  CB_5 
REMARK       I    between atoms: C_3  and  N_16 
REMARK    4  A    between atoms: CB_5  and  CG_6 
REMARK    5  A    between atoms: CG_6  and  CD_7 
REMARK    6  A    between atoms: CD_7  and  CE_8 
REMARK    7  A    between atoms: CE_8  and  NZ_9 
REMARK    8  A    between atoms: N_16  and  CA_17 
REMARK    9  A    between atoms: CA_17  and  CB_20 
REMARK   10  A    between atoms: CA_17  and  C_18 
REMARK       I    between atoms: C_18  and  N_32 
REMARK   11  A    between atoms: CB_20  and  CG_21 
REMARK   12  A    between atoms: N_32  and  CA_33 
REMARK   13  A    between atoms: CA_33  and  CB_36 
REMARK   14  A    between atoms: CA_33  and  C_34 
REMARK       I    between atoms: C_34  and  N_48 
REMARK   15  A    between atoms: CB_36  and  CG_37 
REMARK   16  A    between atoms: N_48  and  CA_49 
REMARK   17  A    between atoms: CA_49  and  CB_52 
REMARK   18  A    between atoms: CA_49  and  C_50 
REMARK       I    between atoms: C_50  and  N_64 
REMARK   19  A    between atoms: CB_52  and  CG_53 
REMARK   20  A    between atoms: N_64  and  CA_65 
REMARK   21  A    between atoms: CA_65  and  CB_68 
REMARK   22  A    between atoms: CA_65  and  C_66 
REMARK       I    between atoms: C_66  and  N_81 
REMARK   23  A    between atoms: CB_68  and  CG_69 
REMARK   24  A    between atoms: CG_69  and  CD_70 
REMARK   25  A    between atoms: CD_70  and  NE_71 
REMARK       I    between atoms: NE_71  and  CZ_72 
REMARK       I    between atoms: CZ_72  and  NH1_73 
REMARK   26  A    between atoms: N_81  and  CA_82 
REMARK   27  A    between atoms: CA_82  and  CB_85 
REMARK   28  A    between atoms: CA_82  and  C_83 
REMARK   29  A    between atoms: CB_85  and  CG_86 
ROOT
ATOM      1  N   LYS     1      27.401  27.784  24.754  1.00  0.00    -0.058 N 
ATOM      2  H1  LYS     1      26.844  28.233  25.452  1.00 99.99     0.276 HD
ATOM      3  H2  LYS     1      27.191  28.163  23.868  1.00 99.99     0.276 HD
ATOM      4  H3  LYS     1      27.121  26.828  24.690  1.00 99.99     0.276 HD
ENDROOT
BRANCH   1   5
ATOM      5  CA  LYS     1      28.839  27.901  25.110  1.00  0.00     0.255 C 
BRANCH   5   6
ATOM      6  C   LYS     1      29.078  28.684  26.424  1.00  0.00     0.259 C 
ATOM      7  O   LYS     1      29.503  28.067  27.395  1.00  0.00    -0.271 OA
ATOM      8  N   TRP     2      28.590  29.928  26.517  1.00  0.00    -0.337 N 
ATOM      9  H   TRP     2      28.222  30.425  25.732  1.00 99.99     0.164 HD
BRANCH   8  10
ATOM     10  CA  TRP     2      28.778  30.762  27.728  1.00  0.00     0.164 C 
BRANCH  10  11
ATOM     11  CB  TRP     2      28.193  32.164  27.532  1.00  0.00     0.059 C 
BRANCH  11  12
ATOM     12  CG  TRP     2      29.009  32.948  26.499  1.00  0.00    -0.016 A 
ATOM     13  CD1 TRP     2      28.590  33.359  25.304  1.00  0.00     0.097 A 
ATOM     14  NE1 TRP     2      29.495  34.184  24.772  1.00  0.00    -0.365 N 
ATOM     15  HE1 TRP     2      29.394  34.664  23.900  1.00 99.99     0.165 HD
ATOM     16  CE2 TRP     2      30.520  34.318  25.611  1.00  0.00     0.042 A 
ATOM     17  CD2 TRP     2      30.244  33.537  26.721  1.00  0.00    -0.001 A 
ATOM     18  CZ2 TRP     2      31.651  35.127  25.603  1.00  0.00     0.030 A 
ATOM     19  CE3 TRP     2      31.089  33.545  27.819  1.00  0.00     0.014 A 
ATOM     20  CZ3 TRP     2      32.211  34.363  27.820  1.00  0.00     0.001 A 
ATOM     21  CH2 TRP     2      32.488  35.162  26.715  1.00  0.00     0.002 A 
ENDBRANCH  11  12
ENDBRANCH  10  11
BRANCH  10  22
ATOM     22  C   TRP     2      28.313  30.117  29.050  1.00  0.00     0.251 C 
ATOM     23  O   TRP     2      29.151  29.820  29.895  1.00  0.00    -0.271 OA
ATOM     24  N   TRP     3      27.050  29.689  29.098  1.00  0.00    -0.337 N 
ATOM     25  H   TRP     3      26.366  30.037  28.463  1.00 99.99     0.164 HD
BRANCH  24  26
ATOM     26  CA  TRP     3      26.467  28.910  30.216  1.00  0.00     0.164 C 
BRANCH  26  27
ATOM     27  CB  TRP     3      25.104  28.409  29.722  1.00  0.00     0.059 C 
BRANCH  27  28
ATOM     28  CG  TRP     3      24.219  27.861  30.841  1.00  0.00    -0.016 A 
ATOM     29  CD1 TRP     3      23.535  28.595  31.713  1.00  0.00     0.097 A 
ATOM     30  NE1 TRP     3      22.965  27.797  32.616  1.00  0.00    -0.365 N 
ATOM     31  CE2 TRP     3      23.264  26.528  32.338  1.00  0.00     0.042 A 
ATOM     32  HE1 TRP     3      22.439  28.113  33.406  1.00 99.99     0.165 HD
ATOM     33  CZ2 TRP     3      22.983  25.324  32.975  1.00  0.00     0.030 A 
ATOM     34  CD2 TRP     3      24.065  26.535  31.206  1.00  0.00    -0.001 A 
ATOM     35  CH2 TRP     3      23.503  24.136  32.475  1.00  0.00     0.002 A 
ATOM     36  CZ3 TRP     3      24.297  24.151  31.335  1.00  0.00     0.001 A 
ATOM     37  CE3 TRP     3      24.585  25.352  30.701  1.00  0.00     0.014 A 
ENDBRANCH  27  28
ENDBRANCH  26  27
BRANCH  26  38
ATOM     38  C   TRP     3      27.358  27.741  30.711  1.00  0.00     0.251 C 
ATOM     39  N   TRP     4      27.817  26.911  29.773  1.00  0.00    -0.337 N 
ATOM     40  H   TRP     4      27.466  26.942  28.843  1.00 99.99     0.164 HD
ATOM     41  O   TRP     3      27.698  27.679  31.889  1.00  0.00    -0.271 OA
BRANCH  39  42
ATOM     42  CA  TRP     4      28.758  25.790  30.006  1.00  0.00     0.164 C 
BRANCH  42  43
ATOM     43  CB  TRP     4      28.744  24.845  28.797  1.00  0.00     0.059 C 
BRANCH  43  44
ATOM     44  CG  TRP     4      27.448  24.046  28.639  1.00  0.00    -0.016 A 
ATOM     45  CD2 TRP     4      27.094  22.914  29.353  1.00  0.00    -0.001 A 
ATOM     46  CE2 TRP     4      25.996  22.360  28.713  1.00  0.00     0.042 A 
ATOM     47  CE3 TRP     4      27.565  22.376  30.542  1.00  0.00     0.014 A 
ATOM     48  NE1 TRP     4      25.723  23.139  27.669  1.00  0.00    -0.365 N 
ATOM     49  CZ2 TRP     4      25.358  21.257  29.274  1.00  0.00     0.030 A 
ATOM     50  HE1 TRP     4      24.989  22.986  27.006  1.00 99.99     0.165 HD
ATOM     51  CD1 TRP     4      26.589  24.154  27.630  1.00  0.00     0.097 A 
ATOM     52  CH2 TRP     4      25.820  20.721  30.472  1.00  0.00     0.002 A 
ATOM     53  CZ3 TRP     4      26.925  21.280  31.105  1.00  0.00     0.001 A 
ENDBRANCH  43  44
ENDBRANCH  42  43
BRANCH  42  54
ATOM     54  C   TRP     4      30.231  26.125  30.337  1.00  0.00     0.251 C 
ATOM     55  O   TRP     4      31.028  25.206  30.525  1.00  0.00    -0.271 OA
ATOM     56  N   ARG     5      30.624  27.401  30.297  1.00  0.00    -0.338 N 
ATOM     57  H   ARG     5      30.000  28.149  30.056  1.00 99.99     0.164 HD
BRANCH  56  58
ATOM     58  CA  ARG     5      32.017  27.825  30.591  1.00  0.00     0.159 C 
BRANCH  58  59
ATOM     59  CB  ARG     5      32.734  28.243  29.297  1.00  0.00     0.034 C 
BRANCH  59  60
ATOM     60  CG  ARG     5      32.117  29.498  28.667  1.00  0.00     0.027 C 
BRANCH  60  61
ATOM     61  CD  ARG     5      33.088  30.279  27.784  1.00  0.00     0.116 C 
BRANCH  61  62
ATOM     62  NE  ARG     5      34.192  30.846  28.585  1.00  0.00    -0.212 N 
ATOM     63  CZ  ARG     5      35.009  31.828  28.190  1.00  0.00     0.666 C 
ATOM     64  NH1 ARG     5      34.793  32.495  27.065  1.00  0.00    -0.235 N 
ATOM     65  NH2 ARG     5      36.169  32.027  28.804  1.00  0.00    -0.235 N 
ATOM     66 1HH1 ARG     5      35.414  33.216  26.769  1.00 99.99     0.174 HD
ATOM     67 2HH1 ARG     5      33.973  32.279  26.537  1.00 99.99     0.174 HD
ATOM     68 1HH2 ARG     5      36.778  32.748  28.482  1.00 99.99     0.174 HD
ATOM     69 2HH2 ARG     5      36.441  31.446  29.569  1.00 99.99     0.174 HD
ATOM     70  HE  ARG     5      34.276  30.485  29.515  1.00 99.99     0.178 HD
ENDBRANCH  61  62
ENDBRANCH  60  61
ENDBRANCH  59  60
ENDBRANCH  58  59
BRANCH  58  71
ATOM     71  C   ARG     5      32.134  28.932  31.665  1.00  0.00     0.251 C 
ATOM     72  N   TRP     6      31.086  29.018  32.477  1.00  0.00    -0.336 N 
ATOM     73  H   TRP     6      30.306  28.404  32.362  1.00 99.99     0.164 HD
ATOM     74  O   ARG     5      33.100  29.696  31.713  1.00  0.00    -0.271 OA
BRANCH  72  75
ATOM     75  CA  TRP     6      30.961  29.932  33.632  1.00  0.00     0.173 C 
BRANCH  75  76
ATOM     76  CB  TRP     6      29.873  30.983  33.369  1.00  0.00     0.060 C 
BRANCH  76  77
ATOM     77  CG  TRP     6      30.185  32.067  32.329  1.00  0.00    -0.016 A 
ATOM     78  CD2 TRP     6      29.260  32.985  31.858  1.00  0.00    -0.001 A 
ATOM     79  CE3 TRP     6      27.889  33.105  32.041  1.00  0.00     0.014 A 
ATOM     80  CE2 TRP     6      29.974  33.990  31.224  1.00  0.00     0.042 A 
ATOM     81  CZ3 TRP     6      27.225  34.236  31.581  1.00  0.00     0.001 A 
ATOM     82  CH2 TRP     6      27.936  35.242  30.937  1.00  0.00     0.002 A 
ATOM     83  CZ2 TRP     6      29.310  35.121  30.761  1.00  0.00     0.030 A 
ATOM     84  NE1 TRP     6      31.262  33.666  31.309  1.00  0.00    -0.365 N 
ATOM     85  HE1 TRP     6      32.029  34.238  31.015  1.00 99.99     0.165 HD
ATOM     86  CD1 TRP     6      31.386  32.508  31.957  1.00  0.00     0.097 A 
ENDBRANCH  76  77
ENDBRANCH  75  76
BRANCH  75  87
ATOM     87  C   TRP     6      30.536  29.120  34.865  1.00  0.00     0.207 C 
ATOM     88  OXT TRP     6      29.610  28.300  34.674  1.00 99.99    -0.646 OA
ATOM     89  O   TRP     6      31.210  29.238  35.912  1.00 99.99    -0.646 OA
ENDBRANCH  75  87
ENDBRANCH  72  75
ENDBRANCH  58  71
ENDBRANCH  56  58
ENDBRANCH  42  54
ENDBRANCH  39  42
ENDBRANCH  26  38
ENDBRANCH  24  26
ENDBRANCH  10  22
ENDBRANCH   8  10
ENDBRANCH   5   6
BRANCH   5  90
ATOM     90  CB  LYS     1      29.732  28.443  23.971  1.00  0.00     0.040 C 
BRANCH  90  91
ATOM     91  CG  LYS     1      31.229  28.264  24.292  1.00  0.00     0.004 C 
BRANCH  91  92
ATOM     92  CD  LYS     1      32.186  28.619  23.146  1.00  0.00     0.032 C 
BRANCH  92  93
ATOM     93  CE  LYS     1      33.639  28.339  23.554  1.00  0.00     0.206 C 
BRANCH  93  94
ATOM     94  NZ  LYS     1      34.599  28.534  22.454  1.00  0.00    -0.064 N 
ATOM     95  HZ1 LYS     1      35.524  28.336  22.782  1.00 99.99     0.275 HD
ATOM     96  HZ2 LYS     1      34.383  27.913  21.701  1.00 99.99     0.275 HD
ATOM     97  HZ3 LYS     1      34.564  29.480  22.132  1.00 99.99     0.275 HD
ENDBRANCH  93  94
ENDBRANCH  92  93
ENDBRANCH  91  92
ENDBRANCH  90  91
ENDBRANCH   5  90
ENDBRANCH   1   5
TORSDOF 29
