REMARK WARNING: 32 MAX_TORS EXCEEDED!!!
REMARK  38 active torsions:
REMARK  status: ('A' for Active; 'I' for Inactive)
REMARK    1  A    between atoms: N_1  and  CA_2 
REMARK    2  A    between atoms: CA_2  and  C_3 
REMARK       I    between atoms: C_3  and  N_8 
REMARK    3  A    between atoms: N_8  and  CA_9 
REMARK    4  A    between atoms: CA_9  and  C_10 
REMARK    5  A    between atoms: CA_9  and  CB_12 
REMARK       I    between atoms: C_10  and  N_17 
REMARK    6  A    between atoms: CB_12  and  CG_13 
REMARK    7  A    between atoms: N_17  and  CA_18 
REMARK    8  A    between atoms: CA_18  and  C_19 
REMARK    9  A    between atoms: CA_18  and  CB_21 
REMARK       I    between atoms: C_19  and  N_26 
REMARK   10  A    between atoms: CB_21  and  CG_22 
REMARK   11  A    between atoms: N_26  and  CA_27 
REMARK   12  A    between atoms: CA_27  and  C_28 
REMARK   13  A    between atoms: CA_27  and  CB_30 
REMARK       I    between atoms: C_28  and  N_39 
REMARK   14  A    between atoms: CB_30  and  CG_31 
REMARK   15  A    between atoms: CG_31  and  CD_32 
REMARK   16  A    between atoms: CD_32  and  CE_33 
REMARK   17  A    between atoms: CE_33  and  NZ_34 
REMARK   18  A    between atoms: N_39  and  CA_40 
REMARK   19  A    between atoms: CA_40  and  CB_43 
REMARK   20  A    between atoms: CA_40  and  C_41 
REMARK       I    between atoms: C_41  and  N_56 
REMARK   21  A    between atoms: CB_43  and  CG_44 
REMARK   22  A    between atoms: CG_44  and  CD_45 
REMARK   23  A    between atoms: CD_45  and  NE_46 
REMARK       I    between atoms: NE_46  and  CZ_47 
REMARK       I    between atoms: CZ_47  and  NH1_48 
REMARK   24  A    between atoms: N_56  and  CA_57 
REMARK   25  A    between atoms: CA_57  and  C_58 
REMARK   26  A    between atoms: CA_57  and  CB_60 
REMARK       I    between atoms: C_58  and  N_65 
REMARK   27  A    between atoms: CB_60  and  CG1_61 
REMARK   28  A    between atoms: N_65  and  CA_66 
REMARK   29  A    between atoms: CA_66  and  C_67 
REMARK   30  A    between atoms: CA_66  and  CB_69 
REMARK       I    between atoms: C_67  and  N_78 
REMARK   31  A    between atoms: CB_69  and  CG_70 
REMARK   32  A    between atoms: CG_70  and  CD_71 
REMARK   33  A    between atoms: CD_71  and  CE_72 
REMARK   34  A    between atoms: CE_72  and  NZ_73 
REMARK   35  A    between atoms: N_78  and  CA_79 
REMARK   36  A    between atoms: CA_79  and  CB_82 
REMARK   37  A    between atoms: CA_79  and  C_80 
REMARK   38  A    between atoms: CB_82  and  OG1_83 
ROOT
ATOM      1  N   GLY     1      22.092  26.633  30.849  1.00  0.00    -0.055 N 
ATOM      2  H1  GLY     1      23.072  26.491  30.994  1.00 99.99     0.276 HD
ATOM      3  H2  GLY     1      21.647  26.857  31.702  1.00 99.99     0.276 HD
ATOM      4  H3  GLY     1      21.683  25.778  30.562  1.00 99.99     0.276 HD
ENDROOT
BRANCH   1   5
ATOM      5  CA  GLY     1      21.906  27.695  29.841  1.00  0.00     0.292 C 
BRANCH   5   6
ATOM      6  C   GLY     1      23.256  28.260  29.348  1.00  0.00     0.261 C 
ATOM      7  O   GLY     1      24.195  27.491  29.131  1.00  0.00    -0.270 OA
ATOM      8  N   LEU     2      23.413  29.570  29.553  1.00  0.00    -0.337 N 
ATOM      9  H   LEU     2      22.706  30.104  30.013  1.00 99.99     0.164 HD
BRANCH   8  10
ATOM     10  CA  LEU     2      24.555  30.387  29.085  1.00  0.00     0.159 C 
BRANCH  10  11
ATOM     11  C   LEU     2      25.945  29.721  29.175  1.00  0.00     0.251 C 
ATOM     12  N   LEU     3      26.308  29.240  30.368  1.00  0.00    -0.338 N 
ATOM     13  H   LEU     3      25.792  29.474  31.188  1.00 99.99     0.164 HD
ATOM     14  O   LEU     2      26.571  29.508  28.140  1.00  0.00    -0.271 OA
BRANCH  12  15
ATOM     15  CA  LEU     3      27.565  28.507  30.650  1.00  0.00     0.159 C 
BRANCH  15  16
ATOM     16  C   LEU     3      28.050  27.466  29.623  1.00  0.00     0.251 C 
ATOM     17  N   LYS     4      27.138  26.715  28.998  1.00  0.00    -0.338 N 
ATOM     18  H   LYS     4      26.163  26.746  29.225  1.00 99.99     0.164 HD
ATOM     19  O   LEU     3      29.251  27.392  29.376  1.00  0.00    -0.271 OA
BRANCH  17  20
ATOM     20  CA  LYS     4      27.529  25.769  27.927  1.00  0.00     0.159 C 
BRANCH  20  21
ATOM     21  C   LYS     4      28.094  26.498  26.687  1.00  0.00     0.251 C 
ATOM     22  N   ARG     5      27.417  27.562  26.254  1.00  0.00    -0.338 N 
ATOM     23  H   ARG     5      26.677  27.959  26.799  1.00 99.99     0.164 HD
ATOM     24  O   LYS     4      29.255  26.284  26.355  1.00  0.00    -0.271 OA
BRANCH  22  25
ATOM     25  CA  ARG     5      27.762  28.360  25.052  1.00  0.00     0.159 C 
BRANCH  25  26
ATOM     26  CB  ARG     5      26.560  29.211  24.629  1.00  0.00     0.034 C 
BRANCH  26  27
ATOM     27  CG  ARG     5      25.321  28.402  24.241  1.00  0.00     0.027 C 
BRANCH  27  28
ATOM     28  CD  ARG     5      24.281  29.290  23.550  1.00  0.00     0.116 C 
BRANCH  28  29
ATOM     29  NE  ARG     5      23.875  30.421  24.409  1.00  0.00    -0.212 N 
ATOM     30  HE  ARG     5      24.561  31.140  24.507  1.00 99.99     0.178 HD
ATOM     31  CZ  ARG     5      22.692  30.570  25.007  1.00  0.00     0.666 C 
ATOM     32  NH1 ARG     5      21.738  29.655  24.887  1.00  0.00    -0.235 N 
ATOM     33  NH2 ARG     5      22.443  31.641  25.746  1.00  0.00    -0.235 N 
ATOM     34 2HH1 ARG     5      21.922  28.850  24.328  1.00 99.99     0.174 HD
ATOM     35 1HH1 ARG     5      20.852  29.779  25.328  1.00 99.99     0.174 HD
ATOM     36 2HH2 ARG     5      23.132  32.355  25.851  1.00 99.99     0.174 HD
ATOM     37 1HH2 ARG     5      21.548  31.741  26.175  1.00 99.99     0.174 HD
ENDBRANCH  28  29
ENDBRANCH  27  28
ENDBRANCH  26  27
ENDBRANCH  25  26
BRANCH  25  38
ATOM     38  C   ARG     5      28.994  29.290  25.165  1.00  0.00     0.251 C 
ATOM     39  N   ILE     6      29.583  29.318  26.358  1.00  0.00    -0.338 N 
ATOM     40  H   ILE     6      29.095  28.997  27.166  1.00 99.99     0.164 HD
ATOM     41  O   ARG     5      29.223  30.129  24.296  1.00  0.00    -0.271 OA
BRANCH  39  42
ATOM     42  CA  ILE     6      30.870  29.996  26.645  1.00  0.00     0.159 C 
BRANCH  42  43
ATOM     43  C   ILE     6      32.026  28.965  26.726  1.00  0.00     0.251 C 
ATOM     44  N   LYS     7      31.683  27.710  27.020  1.00  0.00    -0.338 N 
ATOM     45  H   LYS     7      30.735  27.467  27.217  1.00 99.99     0.164 HD
ATOM     46  O   ILE     6      33.195  29.315  26.571  1.00  0.00    -0.271 OA
BRANCH  44  47
ATOM     47  CA  LYS     7      32.624  26.570  27.116  1.00  0.00     0.159 C 
BRANCH  47  48
ATOM     48  C   LYS     7      32.719  25.711  25.839  1.00  0.00     0.251 C 
ATOM     49  O   LYS     7      33.610  24.873  25.724  1.00  0.00    -0.271 OA
ATOM     50  N   THR     8      31.630  25.708  25.074  1.00  0.00    -0.335 N 
ATOM     51  H   THR     8      30.733  25.939  25.463  1.00 99.99     0.164 HD
BRANCH  50  52
ATOM     52  CA  THR     8      31.593  25.271  23.659  1.00  0.00     0.195 C 
BRANCH  52  53
ATOM     53  CB  THR     8      30.166  24.872  23.233  1.00  0.00     0.141 C 
ATOM     54  CG2 THR     8      30.104  24.326  21.801  1.00  0.00     0.034 C 
BRANCH  53  55
ATOM     55  OG1 THR     8      29.625  23.898  24.129  1.00  0.00    -0.382 OA
ATOM     56  HG1 THR     8      28.714  23.626  23.814  1.00 99.99     0.210 HD
ENDBRANCH  53  55
ENDBRANCH  52  53
BRANCH  52  57
ATOM     57  C   THR     8      32.003  26.485  22.809  1.00  0.00     0.209 C 
ATOM     58  OXT THR     8      31.387  27.545  23.058  1.00 99.99    -0.646 OA
ATOM     59  O   THR     8      32.869  26.322  21.923  1.00 99.99    -0.646 OA
ENDBRANCH  52  57
ENDBRANCH  50  52
ENDBRANCH  47  48
BRANCH  47  60
ATOM     60  CB  LYS     7      32.228  25.669  28.284  1.00  0.00     0.032 C 
BRANCH  60  61
ATOM     61  CG  LYS     7      32.456  26.322  29.647  1.00  0.00     0.004 C 
BRANCH  61  62
ATOM     62  CD  LYS     7      32.159  25.288  30.729  1.00  0.00     0.032 C 
BRANCH  62  63
ATOM     63  CE  LYS     7      32.442  25.834  32.127  1.00  0.00     0.206 C 
BRANCH  63  64
ATOM     64  NZ  LYS     7      32.316  24.753  33.111  1.00  0.00    -0.064 N 
ATOM     65  HZ1 LYS     7      32.503  25.109  34.026  1.00 99.99     0.275 HD
ATOM     66  HZ2 LYS     7      31.391  24.374  33.075  1.00 99.99     0.275 HD
ATOM     67  HZ3 LYS     7      32.976  24.034  32.891  1.00 99.99     0.275 HD
ENDBRANCH  63  64
ENDBRANCH  62  63
ENDBRANCH  61  62
ENDBRANCH  60  61
ENDBRANCH  47  60
ENDBRANCH  44  47
ENDBRANCH  42  43
BRANCH  42  68
ATOM     68  CB  ILE     6      30.744  30.839  27.940  1.00  0.00     0.029 C 
ATOM     69  CG2 ILE     6      32.045  31.607  28.238  1.00  0.00     0.002 C 
BRANCH  68  70
ATOM     70  CG1 ILE     6      29.564  31.827  27.848  1.00  0.00     0.002 C 
ATOM     71  CD  ILE     6      29.189  32.502  29.176  1.00  0.00     0.000 C 
ENDBRANCH  68  70
ENDBRANCH  42  68
ENDBRANCH  39  42
ENDBRANCH  25  38
ENDBRANCH  22  25
ENDBRANCH  20  21
BRANCH  20  72
ATOM     72  CB  LYS     4      26.391  24.802  27.560  1.00  0.00     0.032 C 
BRANCH  72  73
ATOM     73  CG  LYS     4      26.926  23.637  26.714  1.00  0.00     0.004 C 
BRANCH  73  74
ATOM     74  CD  LYS     4      25.887  22.556  26.395  1.00  0.00     0.032 C 
BRANCH  74  75
ATOM     75  CE  LYS     4      26.527  21.468  25.525  1.00  0.00     0.206 C 
BRANCH  75  76
ATOM     76  NZ  LYS     4      25.609  20.357  25.218  1.00  0.00    -0.064 N 
ATOM     77  HZ3 LYS     4      24.806  20.700  24.730  1.00 99.99     0.275 HD
ATOM     78  HZ2 LYS     4      25.322  19.912  26.066  1.00 99.99     0.275 HD
ATOM     79  HZ1 LYS     4      26.081  19.688  24.644  1.00 99.99     0.275 HD
ENDBRANCH  75  76
ENDBRANCH  74  75
ENDBRANCH  73  74
ENDBRANCH  72  73
ENDBRANCH  20  72
ENDBRANCH  17  20
ENDBRANCH  15  16
BRANCH  15  80
ATOM     80  CB  LEU     3      27.476  27.836  32.028  1.00  0.00     0.032 C 
BRANCH  80  81
ATOM     81  CG  LEU     3      27.465  28.827  33.198  1.00  0.00     0.002 C 
ATOM     82  CD1 LEU     3      27.177  28.074  34.498  1.00  0.00     0.000 C 
ATOM     83  CD2 LEU     3      28.803  29.566  33.321  1.00  0.00     0.000 C 
ENDBRANCH  80  81
ENDBRANCH  15  80
ENDBRANCH  12  15
ENDBRANCH  10  11
BRANCH  10  84
ATOM     84  CB  LEU     2      24.498  31.720  29.847  1.00  0.00     0.032 C 
BRANCH  84  85
ATOM     85  CG  LEU     2      25.425  32.822  29.319  1.00  0.00     0.002 C 
ATOM     86  CD1 LEU     2      25.045  33.260  27.900  1.00  0.00     0.000 C 
ATOM     87  CD2 LEU     2      25.383  34.019  30.270  1.00  0.00     0.000 C 
ENDBRANCH  84  85
ENDBRANCH  10  84
ENDBRANCH   8  10
ENDBRANCH   5   6
ENDBRANCH   1   5
TORSDOF 38
