REMARK WARNING: 32 MAX_TORS EXCEEDED!!!
REMARK  33 active torsions:
REMARK  status: ('A' for Active; 'I' for Inactive)
REMARK    1  A    between atoms: N_1  and  CA_2 
REMARK    2  A    between atoms: CA_2  and  C_3 
REMARK    3  A    between atoms: CA_2  and  CB_5 
REMARK       I    between atoms: C_3  and  N_16 
REMARK    4  A    between atoms: CB_5  and  CG_6 
REMARK    5  A    between atoms: CG_6  and  CD_7 
REMARK    6  A    between atoms: CD_7  and  CE_8 
REMARK    7  A    between atoms: CE_8  and  NZ_9 
REMARK    8  A    between atoms: N_16  and  CA_17 
REMARK    9  A    between atoms: CA_17  and  C_18 
REMARK   10  A    between atoms: CA_17  and  CB_20 
REMARK       I    between atoms: C_18  and  N_29 
REMARK   11  A    between atoms: CB_20  and  CG_21 
REMARK   12  A    between atoms: CG_21  and  CD_22 
REMARK   13  A    between atoms: CD_22  and  CE_23 
REMARK   14  A    between atoms: CE_23  and  NZ_24 
REMARK   15  A    between atoms: N_29  and  CA_30 
REMARK   16  A    between atoms: CA_30  and  C_31 
REMARK   17  A    between atoms: CA_30  and  CB_33 
REMARK       I    between atoms: C_31  and  N_42 
REMARK   18  A    between atoms: CB_33  and  CG_34 
REMARK   19  A    between atoms: CG_34  and  CD_35 
REMARK   20  A    between atoms: CD_35  and  CE_36 
REMARK   21  A    between atoms: CE_36  and  NZ_37 
REMARK   22  A    between atoms: N_42  and  CA_43 
REMARK   23  A    between atoms: CA_43  and  CB_46 
REMARK   24  A    between atoms: CA_43  and  C_44 
REMARK       I    between atoms: C_44  and  N_51 
REMARK   25  A    between atoms: CB_46  and  CG_47 
REMARK   26  A    between atoms: N_51  and  CA_52 
REMARK   27  A    between atoms: CA_52  and  C_53 
REMARK       I    between atoms: C_53  and  N_57 
REMARK   28  A    between atoms: N_57  and  CA_58 
REMARK   29  A    between atoms: CA_58  and  CB_61 
REMARK   30  A    between atoms: CA_58  and  C_59 
REMARK       I    between atoms: C_59  and  N_69 
REMARK   31  A    between atoms: CB_61  and  CG_62 
REMARK   32  A    between atoms: N_69  and  CA_70 
REMARK   33  A    between atoms: CA_70  and  C_71 
ROOT
ATOM      1  N   LYS     1      25.902  29.412  34.290  1.00  0.00    -0.058 N 
ATOM      2  H1  LYS     1      26.401  28.617  33.949  1.00 99.99     0.276 HD
ATOM      3  H2  LYS     1      26.023  29.486  35.262  1.00 99.99     0.276 HD
ATOM      4  H3  LYS     1      24.929  29.247  34.162  1.00 99.99     0.276 HD
ENDROOT
BRANCH   1   5
ATOM      5  CA  LYS     1      26.354  30.617  33.554  1.00  0.00     0.255 C 
BRANCH   5   6
ATOM      6  C   LYS     1      27.462  30.218  32.544  1.00  0.00     0.259 C 
ATOM      7  O   LYS     1      27.094  29.463  31.648  1.00  0.00    -0.271 OA
ATOM      8  N   LYS     2      28.762  30.364  32.858  1.00  0.00    -0.338 N 
ATOM      9  H   LYS     2      29.036  30.680  33.766  1.00 99.99     0.164 HD
BRANCH   8  10
ATOM     10  CA  LYS     2      29.913  30.133  31.938  1.00  0.00     0.159 C 
BRANCH  10  11
ATOM     11  C   LYS     2      29.647  29.326  30.643  1.00  0.00     0.251 C 
ATOM     12  N   LYS     3      29.348  28.024  30.751  1.00  0.00    -0.338 N 
ATOM     13  H   LYS     3      29.387  27.556  31.632  1.00 99.99     0.164 HD
ATOM     14  O   LYS     2      29.581  29.933  29.577  1.00  0.00    -0.271 OA
BRANCH  12  15
ATOM     15  CA  LYS     3      28.993  27.149  29.605  1.00  0.00     0.159 C 
BRANCH  15  16
ATOM     16  C   LYS     3      28.018  27.793  28.585  1.00  0.00     0.251 C 
ATOM     17  N   LEU     4      26.929  28.379  29.089  1.00  0.00    -0.338 N 
ATOM     18  H   LEU     4      26.814  28.483  30.080  1.00 99.99     0.164 HD
ATOM     19  O   LYS     3      28.392  27.981  27.428  1.00  0.00    -0.271 OA
BRANCH  17  20
ATOM     20  CA  LEU     4      25.864  29.047  28.300  1.00  0.00     0.159 C 
BRANCH  20  21
ATOM     21  CB  LEU     4      24.629  29.230  29.192  1.00  0.00     0.032 C 
BRANCH  21  22
ATOM     22  CG  LEU     4      23.961  27.933  29.659  1.00  0.00     0.002 C 
ATOM     23  CD2 LEU     4      23.342  27.160  28.489  1.00  0.00     0.000 C 
ATOM     24  CD1 LEU     4      22.874  28.284  30.676  1.00  0.00     0.000 C 
ENDBRANCH  21  22
ENDBRANCH  20  21
BRANCH  20  25
ATOM     25  C   LEU     4      26.222  30.416  27.676  1.00  0.00     0.251 C 
ATOM     26  O   LEU     4      25.349  31.121  27.175  1.00  0.00    -0.271 OA
ATOM     27  N   ALA     5      27.443  30.870  27.944  1.00  0.00    -0.338 N 
ATOM     28  H   ALA     5      28.025  30.413  28.619  1.00 99.99     0.164 HD
BRANCH  27  29
ATOM     29  CA  ALA     5      28.033  32.105  27.386  1.00  0.00     0.159 C 
ATOM     30  CB  ALA     5      28.283  33.067  28.552  1.00  0.00     0.034 C 
BRANCH  29  31
ATOM     31  C   ALA     5      29.337  31.853  26.594  1.00  0.00     0.251 C 
ATOM     32  O   ALA     5      30.041  32.782  26.203  1.00  0.00    -0.271 OA
ATOM     33  N   PHE     6      29.700  30.575  26.505  1.00  0.00    -0.337 N 
ATOM     34  H   PHE     6      29.293  29.895  27.112  1.00 99.99     0.164 HD
BRANCH  33  35
ATOM     35  CA  PHE     6      30.810  30.046  25.688  1.00  0.00     0.164 C 
BRANCH  35  36
ATOM     36  CB  PHE     6      31.664  29.160  26.606  1.00  0.00     0.056 C 
BRANCH  36  37
ATOM     37  CG  PHE     6      32.796  28.443  25.868  1.00  0.00    -0.044 A 
ATOM     38  CD2 PHE     6      32.588  27.156  25.386  1.00  0.00     0.008 A 
ATOM     39  CE2 PHE     6      33.551  26.548  24.591  1.00  0.00     0.001 A 
ATOM     40  CZ  PHE     6      34.724  27.226  24.283  1.00  0.00     0.000 A 
ATOM     41  CE1 PHE     6      34.936  28.509  24.774  1.00  0.00     0.001 A 
ATOM     42  CD1 PHE     6      33.977  29.115  25.576  1.00  0.00     0.008 A 
ENDBRANCH  36  37
ENDBRANCH  35  36
BRANCH  35  43
ATOM     43  C   PHE     6      30.284  29.263  24.465  1.00  0.00     0.251 C 
ATOM     44  O   PHE     6      30.973  29.117  23.459  1.00  0.00    -0.271 OA
ATOM     45  N   ALA     7      29.081  28.712  24.615  1.00  0.00    -0.336 N 
ATOM     46  H   ALA     7      28.598  28.763  25.489  1.00 99.99     0.164 HD
BRANCH  45  47
ATOM     47  CA  ALA     7      28.343  28.001  23.553  1.00  0.00     0.168 C 
ATOM     48  CB  ALA     7      27.825  26.682  24.134  1.00  0.00     0.036 C 
BRANCH  47  49
ATOM     49  C   ALA     7      27.152  28.855  23.083  1.00  0.00     0.206 C 
ATOM     50  O   ALA     7      27.024  29.056  21.856  1.00 99.99    -0.646 OA
ATOM     51  OXT ALA     7      26.461  29.368  23.991  1.00 99.99    -0.646 OA
ENDBRANCH  47  49
ENDBRANCH  45  47
ENDBRANCH  35  43
ENDBRANCH  33  35
ENDBRANCH  29  31
ENDBRANCH  27  29
ENDBRANCH  20  25
ENDBRANCH  17  20
ENDBRANCH  15  16
BRANCH  15  52
ATOM     52  CB  LYS     3      28.435  25.820  30.146  1.00  0.00     0.032 C 
BRANCH  52  53
ATOM     53  CG  LYS     3      28.262  24.762  29.049  1.00  0.00     0.004 C 
BRANCH  53  54
ATOM     54  CD  LYS     3      27.683  23.443  29.569  1.00  0.00     0.032 C 
BRANCH  54  55
ATOM     55  CE  LYS     3      27.514  22.457  28.409  1.00  0.00     0.206 C 
BRANCH  55  56
ATOM     56  NZ  LYS     3      26.963  21.162  28.838  1.00  0.00    -0.064 N 
ATOM     57  HZ1 LYS     3      26.873  20.563  28.041  1.00 99.99     0.275 HD
ATOM     58  HZ3 LYS     3      26.062  21.295  29.251  1.00 99.99     0.275 HD
ATOM     59  HZ2 LYS     3      27.577  20.734  29.501  1.00 99.99     0.275 HD
ENDBRANCH  55  56
ENDBRANCH  54  55
ENDBRANCH  53  54
ENDBRANCH  52  53
ENDBRANCH  15  52
ENDBRANCH  12  15
ENDBRANCH  10  11
BRANCH  10  60
ATOM     60  CB  LYS     2      31.165  29.642  32.690  1.00  0.00     0.032 C 
BRANCH  60  61
ATOM     61  CG  LYS     2      32.440  29.819  31.847  1.00  0.00     0.004 C 
BRANCH  61  62
ATOM     62  CD  LYS     2      33.739  29.460  32.581  1.00  0.00     0.032 C 
BRANCH  62  63
ATOM     63  CE  LYS     2      34.949  29.680  31.663  1.00  0.00     0.206 C 
BRANCH  63  64
ATOM     64  NZ  LYS     2      36.235  29.379  32.315  1.00  0.00    -0.064 N 
ATOM     65  HZ3 LYS     2      36.256  28.423  32.607  1.00 99.99     0.275 HD
ATOM     66  HZ1 LYS     2      36.980  29.536  31.665  1.00 99.99     0.275 HD
ATOM     67  HZ2 LYS     2      36.365  29.976  33.107  1.00 99.99     0.275 HD
ENDBRANCH  63  64
ENDBRANCH  62  63
ENDBRANCH  61  62
ENDBRANCH  60  61
ENDBRANCH  10  60
ENDBRANCH   8  10
ENDBRANCH   5   6
BRANCH   5  68
ATOM     68  CB  LYS     1      26.699  31.794  34.493  1.00  0.00     0.040 C 
BRANCH  68  69
ATOM     69  CG  LYS     1      26.525  33.150  33.785  1.00  0.00     0.004 C 
BRANCH  69  70
ATOM     70  CD  LYS     1      26.499  34.356  34.736  1.00  0.00     0.032 C 
BRANCH  70  71
ATOM     71  CE  LYS     1      26.204  35.654  33.969  1.00  0.00     0.206 C 
BRANCH  71  72
ATOM     72  NZ  LYS     1      26.058  36.834  34.840  1.00  0.00    -0.064 N 
ATOM     73  HZ1 LYS     1      25.870  37.641  34.278  1.00 99.99     0.275 HD
ATOM     74  HZ2 LYS     1      25.296  36.700  35.474  1.00 99.99     0.275 HD
ATOM     75  HZ3 LYS     1      26.900  36.989  35.357  1.00 99.99     0.275 HD
ENDBRANCH  71  72
ENDBRANCH  70  71
ENDBRANCH  69  70
ENDBRANCH  68  69
ENDBRANCH   5  68
ENDBRANCH   1   5
TORSDOF 33
