REMARK WARNING: 32 MAX_TORS EXCEEDED!!!
REMARK  33 active torsions:
REMARK  status: ('A' for Active; 'I' for Inactive)
REMARK    1  A    between atoms: N_1  and  CA_2 
REMARK    2  A    between atoms: CA_2  and  C_3 
REMARK    3  A    between atoms: CA_2  and  CB_5 
REMARK       I    between atoms: C_3  and  N_16 
REMARK    4  A    between atoms: CB_5  and  CG_6 
REMARK    5  A    between atoms: CG_6  and  CD_7 
REMARK    6  A    between atoms: CD_7  and  CE_8 
REMARK    7  A    between atoms: CE_8  and  NZ_9 
REMARK    8  A    between atoms: N_16  and  CA_17 
REMARK    9  A    between atoms: CA_17  and  C_18 
REMARK   10  A    between atoms: CA_17  and  CB_20 
REMARK       I    between atoms: C_18  and  N_29 
REMARK   11  A    between atoms: CB_20  and  CG_21 
REMARK   12  A    between atoms: CG_21  and  CD_22 
REMARK   13  A    between atoms: CD_22  and  CE_23 
REMARK   14  A    between atoms: CE_23  and  NZ_24 
REMARK   15  A    between atoms: N_29  and  CA_30 
REMARK   16  A    between atoms: CA_30  and  C_31 
REMARK   17  A    between atoms: CA_30  and  CB_33 
REMARK       I    between atoms: C_31  and  N_38 
REMARK   18  A    between atoms: CB_33  and  CG_34 
REMARK   19  A    between atoms: N_38  and  CA_39 
REMARK   20  A    between atoms: CA_39  and  C_40 
REMARK   21  A    between atoms: CA_39  and  CB_42 
REMARK       I    between atoms: C_40  and  N_51 
REMARK   22  A    between atoms: CB_42  and  CG_43 
REMARK   23  A    between atoms: CG_43  and  CD_44 
REMARK   24  A    between atoms: CD_44  and  CE_45 
REMARK   25  A    between atoms: CE_45  and  NZ_46 
REMARK   26  A    between atoms: N_51  and  CA_52 
REMARK   27  A    between atoms: CA_52  and  C_53 
REMARK       I    between atoms: C_53  and  N_57 
REMARK   28  A    between atoms: N_57  and  CA_58 
REMARK   29  A    between atoms: CA_58  and  C_59 
REMARK   30  A    between atoms: CA_58  and  CB_61 
REMARK       I    between atoms: C_59  and  N_69 
REMARK   31  A    between atoms: CB_61  and  CG_62 
REMARK   32  A    between atoms: N_69  and  CA_70 
REMARK   33  A    between atoms: CA_70  and  C_71 
ROOT
ATOM      1  N   LYS     1      26.407  28.818  34.166  1.00  0.00    -0.058 N 
ATOM      2  H1  LYS     1      26.974  28.104  33.769  1.00 99.99     0.276 HD
ATOM      3  H2  LYS     1      26.619  28.926  35.114  1.00 99.99     0.276 HD
ATOM      4  H3  LYS     1      25.462  28.523  34.132  1.00 99.99     0.276 HD
ENDROOT
BRANCH   1   5
ATOM      5  CA  LYS     1      26.611  30.074  33.378  1.00  0.00     0.255 C 
BRANCH   5   6
ATOM      6  C   LYS     1      27.646  29.769  32.280  1.00  0.00     0.259 C 
ATOM      7  O   LYS     1      27.253  29.043  31.364  1.00  0.00    -0.271 OA
ATOM      8  N   LYS     2      28.953  29.924  32.558  1.00  0.00    -0.338 N 
ATOM      9  H   LYS     2      29.242  30.230  33.464  1.00 99.99     0.164 HD
BRANCH   8  10
ATOM     10  CA  LYS     2      30.084  29.733  31.607  1.00  0.00     0.159 C 
BRANCH  10  11
ATOM     11  C   LYS     2      29.786  28.960  30.308  1.00  0.00     0.251 C 
ATOM     12  N   LEU     3      29.540  27.643  30.398  1.00  0.00    -0.338 N 
ATOM     13  H   LEU     3      29.676  27.156  31.258  1.00 99.99     0.164 HD
ATOM     14  O   LYS     2      29.720  29.585  29.248  1.00  0.00    -0.271 OA
BRANCH  12  15
ATOM     15  CA  LEU     3      29.130  26.778  29.270  1.00  0.00     0.159 C 
BRANCH  15  16
ATOM     16  C   LEU     3      28.176  27.463  28.274  1.00  0.00     0.251 C 
ATOM     17  N   LYS     4      27.010  27.898  28.770  1.00  0.00    -0.338 N 
ATOM     18  H   LYS     4      26.834  27.826  29.755  1.00 99.99     0.164 HD
ATOM     19  O   LEU     3      28.643  27.870  27.208  1.00  0.00    -0.271 OA
BRANCH  17  20
ATOM     20  CA  LYS     4      25.933  28.590  28.030  1.00  0.00     0.159 C 
BRANCH  20  21
ATOM     21  C   LYS     4      26.240  29.992  27.456  1.00  0.00     0.251 C 
ATOM     22  N   ALA     5      27.503  30.413  27.546  1.00  0.00    -0.338 N 
ATOM     23  H   ALA     5      28.166  29.900  28.098  1.00 99.99     0.164 HD
ATOM     24  O   LYS     4      25.332  30.732  27.067  1.00  0.00    -0.271 OA
BRANCH  22  25
ATOM     25  CA  ALA     5      28.040  31.648  26.946  1.00  0.00     0.159 C 
ATOM     26  CB  ALA     5      28.349  32.618  28.094  1.00  0.00     0.034 C 
BRANCH  25  27
ATOM     27  C   ALA     5      29.293  31.416  26.073  1.00  0.00     0.251 C 
ATOM     28  N   PHE     6      29.635  30.140  25.891  1.00  0.00    -0.337 N 
ATOM     29  H   PHE     6      29.158  29.426  26.407  1.00 99.99     0.164 HD
ATOM     30  O   ALA     5      29.966  32.356  25.644  1.00  0.00    -0.271 OA
BRANCH  28  31
ATOM     31  CA  PHE     6      30.763  29.636  25.085  1.00  0.00     0.164 C 
BRANCH  31  32
ATOM     32  C   PHE     6      30.310  28.565  24.069  1.00  0.00     0.251 C 
ATOM     33  O   PHE     6      30.900  28.415  23.000  1.00  0.00    -0.271 OA
ATOM     34  N   ALA     7      29.289  27.796  24.460  1.00  0.00    -0.336 N 
ATOM     35  H   ALA     7      28.917  27.900  25.386  1.00 99.99     0.164 HD
BRANCH  34  36
ATOM     36  CA  ALA     7      28.637  26.715  23.687  1.00  0.00     0.168 C 
ATOM     37  CB  ALA     7      29.517  25.456  23.708  1.00  0.00     0.036 C 
BRANCH  36  38
ATOM     38  C   ALA     7      27.276  26.360  24.309  1.00  0.00     0.206 C 
ATOM     39  O   ALA     7      26.270  26.371  23.560  1.00 99.99    -0.646 OA
ATOM     40  OXT ALA     7      27.247  26.238  25.555  1.00 99.99    -0.646 OA
ENDBRANCH  36  38
ENDBRANCH  34  36
ENDBRANCH  31  32
BRANCH  31  41
ATOM     41  CB  PHE     6      31.800  29.080  26.074  1.00  0.00     0.056 C 
BRANCH  41  42
ATOM     42  CG  PHE     6      33.085  28.561  25.412  1.00  0.00    -0.044 A 
ATOM     43  CD2 PHE     6      33.189  27.209  25.110  1.00  0.00     0.008 A 
ATOM     44  CE2 PHE     6      34.346  26.720  24.499  1.00  0.00     0.001 A 
ATOM     45  CZ  PHE     6      35.392  27.598  24.197  1.00  0.00     0.000 A 
ATOM     46  CE1 PHE     6      35.278  28.944  24.523  1.00  0.00     0.001 A 
ATOM     47  CD1 PHE     6      34.130  29.420  25.128  1.00  0.00     0.008 A 
ENDBRANCH  41  42
ENDBRANCH  31  41
ENDBRANCH  28  31
ENDBRANCH  25  27
ENDBRANCH  22  25
ENDBRANCH  20  21
BRANCH  20  48
ATOM     48  CB  LYS     4      24.701  28.716  28.942  1.00  0.00     0.032 C 
BRANCH  48  49
ATOM     49  CG  LYS     4      23.907  27.426  29.142  1.00  0.00     0.004 C 
BRANCH  49  50
ATOM     50  CD  LYS     4      22.565  27.779  29.789  1.00  0.00     0.032 C 
BRANCH  50  51
ATOM     51  CE  LYS     4      21.653  26.558  29.924  1.00  0.00     0.206 C 
BRANCH  51  52
ATOM     52  NZ  LYS     4      20.307  26.956  30.364  1.00  0.00    -0.064 N 
ATOM     53  HZ1 LYS     4      19.729  26.144  30.445  1.00 99.99     0.275 HD
ATOM     54  HZ2 LYS     4      20.359  27.421  31.247  1.00 99.99     0.275 HD
ATOM     55  HZ3 LYS     4      19.908  27.576  29.687  1.00 99.99     0.275 HD
ENDBRANCH  51  52
ENDBRANCH  50  51
ENDBRANCH  49  50
ENDBRANCH  48  49
ENDBRANCH  20  48
ENDBRANCH  17  20
ENDBRANCH  15  16
BRANCH  15  56
ATOM     56  CB  LEU     3      28.526  25.480  29.840  1.00  0.00     0.032 C 
BRANCH  56  57
ATOM     57  CG  LEU     3      28.289  24.373  28.802  1.00  0.00     0.002 C 
ATOM     58  CD2 LEU     3      27.515  23.219  29.442  1.00  0.00     0.000 C 
ATOM     59  CD1 LEU     3      29.606  23.859  28.209  1.00  0.00     0.000 C 
ENDBRANCH  56  57
ENDBRANCH  15  56
ENDBRANCH  12  15
ENDBRANCH  10  11
BRANCH  10  60
ATOM     60  CB  LYS     2      31.340  29.202  32.325  1.00  0.00     0.032 C 
BRANCH  60  61
ATOM     61  CG  LYS     2      32.591  29.387  31.452  1.00  0.00     0.004 C 
BRANCH  61  62
ATOM     62  CD  LYS     2      33.893  28.950  32.131  1.00  0.00     0.032 C 
BRANCH  62  63
ATOM     63  CE  LYS     2      35.077  29.171  31.183  1.00  0.00     0.206 C 
BRANCH  63  64
ATOM     64  NZ  LYS     2      36.363  28.789  31.786  1.00  0.00    -0.064 N 
ATOM     65  HZ3 LYS     2      36.350  27.821  32.033  1.00 99.99     0.275 HD
ATOM     66  HZ1 LYS     2      37.098  28.948  31.123  1.00 99.99     0.275 HD
ATOM     67  HZ2 LYS     2      36.535  29.343  32.600  1.00 99.99     0.275 HD
ENDBRANCH  63  64
ENDBRANCH  62  63
ENDBRANCH  61  62
ENDBRANCH  60  61
ENDBRANCH  10  60
ENDBRANCH   8  10
ENDBRANCH   5   6
BRANCH   5  68
ATOM     68  CB  LYS     1      26.917  31.299  34.263  1.00  0.00     0.040 C 
BRANCH  68  69
ATOM     69  CG  LYS     1      26.635  32.626  33.529  1.00  0.00     0.004 C 
BRANCH  69  70
ATOM     70  CD  LYS     1      26.647  33.867  34.438  1.00  0.00     0.032 C 
BRANCH  70  71
ATOM     71  CE  LYS     1      26.294  35.138  33.651  1.00  0.00     0.206 C 
BRANCH  71  72
ATOM     72  NZ  LYS     1      26.217  36.351  34.491  1.00  0.00    -0.064 N 
ATOM     73  HZ1 LYS     1      25.992  37.140  33.915  1.00 99.99     0.275 HD
ATOM     74  HZ2 LYS     1      25.504  36.245  35.182  1.00 99.99     0.275 HD
ATOM     75  HZ3 LYS     1      27.095  36.518  34.937  1.00 99.99     0.275 HD
ENDBRANCH  71  72
ENDBRANCH  70  71
ENDBRANCH  69  70
ENDBRANCH  68  69
ENDBRANCH   5  68
ENDBRANCH   1   5
TORSDOF 33
