REMARK WARNING: 32 MAX_TORS EXCEEDED!!!
REMARK  33 active torsions:
REMARK  status: ('A' for Active; 'I' for Inactive)
REMARK    1  A    between atoms: N_1  and  CA_2 
REMARK    2  A    between atoms: CA_2  and  C_3 
REMARK    3  A    between atoms: CA_2  and  CB_5 
REMARK       I    between atoms: C_3  and  N_16 
REMARK    4  A    between atoms: CB_5  and  CG_6 
REMARK    5  A    between atoms: CG_6  and  CD_7 
REMARK    6  A    between atoms: CD_7  and  CE_8 
REMARK    7  A    between atoms: CE_8  and  NZ_9 
REMARK    8  A    between atoms: N_16  and  CA_17 
REMARK    9  A    between atoms: CA_17  and  C_18 
REMARK   10  A    between atoms: CA_17  and  CB_20 
REMARK       I    between atoms: C_18  and  N_29 
REMARK   11  A    between atoms: CB_20  and  CG_21 
REMARK   12  A    between atoms: CG_21  and  CD_22 
REMARK   13  A    between atoms: CD_22  and  CE_23 
REMARK   14  A    between atoms: CE_23  and  NZ_24 
REMARK   15  A    between atoms: N_29  and  CA_30 
REMARK   16  A    between atoms: CA_30  and  C_31 
REMARK   17  A    between atoms: CA_30  and  CB_33 
REMARK       I    between atoms: C_31  and  N_38 
REMARK   18  A    between atoms: CB_33  and  CG_34 
REMARK   19  A    between atoms: N_38  and  CA_39 
REMARK   20  A    between atoms: CA_39  and  C_40 
REMARK   21  A    between atoms: CA_39  and  CB_42 
REMARK       I    between atoms: C_40  and  N_51 
REMARK   22  A    between atoms: CB_42  and  CG_43 
REMARK   23  A    between atoms: CG_43  and  CD_44 
REMARK   24  A    between atoms: CD_44  and  CE_45 
REMARK   25  A    between atoms: CE_45  and  NZ_46 
REMARK   26  A    between atoms: N_51  and  CA_52 
REMARK   27  A    between atoms: CA_52  and  C_53 
REMARK       I    between atoms: C_53  and  N_57 
REMARK   28  A    between atoms: N_57  and  CA_58 
REMARK   29  A    between atoms: CA_58  and  C_59 
REMARK   30  A    between atoms: CA_58  and  CB_61 
REMARK       I    between atoms: C_59  and  N_69 
REMARK   31  A    between atoms: CB_61  and  CG_62 
REMARK   32  A    between atoms: N_69  and  CA_70 
REMARK   33  A    between atoms: CA_70  and  C_71 
ROOT
ATOM      1  N   LYS     1      26.397  28.826  34.162  1.00  0.00    -0.058 N 
ATOM      2  H1  LYS     1      26.962  28.101  33.771  1.00 99.99     0.276 HD
ATOM      3  H2  LYS     1      26.605  28.925  35.115  1.00 99.99     0.276 HD
ATOM      4  H3  LYS     1      25.450  28.528  34.128  1.00 99.99     0.276 HD
ENDROOT
BRANCH   1   5
ATOM      5  CA  LYS     1      26.609  30.068  33.384  1.00  0.00     0.255 C 
BRANCH   5   6
ATOM      6  C   LYS     1      27.651  29.760  32.282  1.00  0.00     0.259 C 
ATOM      7  O   LYS     1      27.259  29.026  31.379  1.00  0.00    -0.271 OA
ATOM      8  N   LYS     2      28.956  29.925  32.560  1.00  0.00    -0.338 N 
ATOM      9  H   LYS     2      29.247  30.244  33.461  1.00 99.99     0.164 HD
BRANCH   8  10
ATOM     10  CA  LYS     2      30.087  29.728  31.612  1.00  0.00     0.159 C 
BRANCH  10  11
ATOM     11  C   LYS     2      29.786  28.958  30.306  1.00  0.00     0.251 C 
ATOM     12  N   LEU     3      29.542  27.644  30.398  1.00  0.00    -0.338 N 
ATOM     13  H   LEU     3      29.675  27.153  31.256  1.00 99.99     0.164 HD
ATOM     14  O   LYS     2      29.720  29.586  29.252  1.00  0.00    -0.271 OA
BRANCH  12  15
ATOM     15  CA  LEU     3      29.129  26.777  29.269  1.00  0.00     0.159 C 
BRANCH  15  16
ATOM     16  C   LEU     3      28.175  27.470  28.271  1.00  0.00     0.251 C 
ATOM     17  N   LYS     4      27.013  27.904  28.773  1.00  0.00    -0.338 N 
ATOM     18  H   LYS     4      26.835  27.834  29.755  1.00 99.99     0.164 HD
ATOM     19  O   LEU     3      28.643  27.876  27.211  1.00  0.00    -0.271 OA
BRANCH  17  20
ATOM     20  CA  LYS     4      25.933  28.601  28.031  1.00  0.00     0.159 C 
BRANCH  20  21
ATOM     21  C   LYS     4      26.244  30.008  27.459  1.00  0.00     0.251 C 
ATOM     22  N   ALA     5      27.507  30.418  27.548  1.00  0.00    -0.338 N 
ATOM     23  H   ALA     5      28.171  29.906  28.097  1.00 99.99     0.164 HD
ATOM     24  O   LYS     4      25.339  30.748  27.079  1.00  0.00    -0.271 OA
BRANCH  22  25
ATOM     25  CA  ALA     5      28.050  31.656  26.947  1.00  0.00     0.159 C 
ATOM     26  CB  ALA     5      28.360  32.623  28.094  1.00  0.00     0.034 C 
BRANCH  25  27
ATOM     27  C   ALA     5      29.307  31.417  26.075  1.00  0.00     0.251 C 
ATOM     28  N   PHE     6      29.636  30.140  25.892  1.00  0.00    -0.337 N 
ATOM     29  H   PHE     6      29.161  29.427  26.408  1.00 99.99     0.164 HD
ATOM     30  O   ALA     5      29.985  32.352  25.655  1.00  0.00    -0.271 OA
BRANCH  28  31
ATOM     31  CA  PHE     6      30.766  29.632  25.087  1.00  0.00     0.164 C 
BRANCH  31  32
ATOM     32  C   PHE     6      30.313  28.559  24.071  1.00  0.00     0.251 C 
ATOM     33  O   PHE     6      30.903  28.411  23.003  1.00  0.00    -0.271 OA
ATOM     34  N   ALA     7      29.289  27.796  24.461  1.00  0.00    -0.336 N 
ATOM     35  H   ALA     7      28.910  27.907  25.383  1.00 99.99     0.164 HD
BRANCH  34  36
ATOM     36  CA  ALA     7      28.637  26.712  23.690  1.00  0.00     0.168 C 
ATOM     37  CB  ALA     7      29.514  25.454  23.709  1.00  0.00     0.036 C 
BRANCH  36  38
ATOM     38  C   ALA     7      27.274  26.358  24.318  1.00  0.00     0.206 C 
ATOM     39  O   ALA     7      26.269  26.372  23.576  1.00 99.99    -0.646 OA
ATOM     40  OXT ALA     7      27.254  26.239  25.565  1.00 99.99    -0.646 OA
ENDBRANCH  36  38
ENDBRANCH  34  36
ENDBRANCH  31  32
BRANCH  31  41
ATOM     41  CB  PHE     6      31.797  29.080  26.084  1.00  0.00     0.056 C 
BRANCH  41  42
ATOM     42  CG  PHE     6      33.073  28.551  25.430  1.00  0.00    -0.044 A 
ATOM     43  CD2 PHE     6      33.170  27.201  25.117  1.00  0.00     0.008 A 
ATOM     44  CE2 PHE     6      34.318  26.708  24.513  1.00  0.00     0.001 A 
ATOM     45  CZ  PHE     6      35.374  27.564  24.225  1.00  0.00     0.000 A 
ATOM     46  CE1 PHE     6      35.277  28.916  24.537  1.00  0.00     0.001 A 
ATOM     47  CD1 PHE     6      34.132  29.408  25.151  1.00  0.00     0.008 A 
ENDBRANCH  41  42
ENDBRANCH  31  41
ENDBRANCH  28  31
ENDBRANCH  25  27
ENDBRANCH  22  25
ENDBRANCH  20  21
BRANCH  20  48
ATOM     48  CB  LYS     4      24.704  28.725  28.942  1.00  0.00     0.032 C 
BRANCH  48  49
ATOM     49  CG  LYS     4      23.905  27.435  29.135  1.00  0.00     0.004 C 
BRANCH  49  50
ATOM     50  CD  LYS     4      22.563  27.789  29.780  1.00  0.00     0.032 C 
BRANCH  50  51
ATOM     51  CE  LYS     4      21.646  26.572  29.912  1.00  0.00     0.206 C 
BRANCH  51  52
ATOM     52  NZ  LYS     4      20.299  26.977  30.343  1.00  0.00    -0.064 N 
ATOM     53  HZ1 LYS     4      19.717  26.167  30.425  1.00 99.99     0.275 HD
ATOM     54  HZ2 LYS     4      20.347  27.444  31.225  1.00 99.99     0.275 HD
ATOM     55  HZ3 LYS     4      19.905  27.596  29.662  1.00 99.99     0.275 HD
ENDBRANCH  51  52
ENDBRANCH  50  51
ENDBRANCH  49  50
ENDBRANCH  48  49
ENDBRANCH  20  48
ENDBRANCH  17  20
ENDBRANCH  15  16
BRANCH  15  56
ATOM     56  CB  LEU     3      28.521  25.483  29.838  1.00  0.00     0.032 C 
BRANCH  56  57
ATOM     57  CG  LEU     3      28.282  24.377  28.798  1.00  0.00     0.002 C 
ATOM     58  CD2 LEU     3      27.502  23.226  29.436  1.00  0.00     0.000 C 
ATOM     59  CD1 LEU     3      29.597  23.858  28.208  1.00  0.00     0.000 C 
ENDBRANCH  56  57
ENDBRANCH  15  56
ENDBRANCH  12  15
ENDBRANCH  10  11
BRANCH  10  60
ATOM     60  CB  LYS     2      31.340  29.190  32.327  1.00  0.00     0.032 C 
BRANCH  60  61
ATOM     61  CG  LYS     2      32.591  29.371  31.454  1.00  0.00     0.004 C 
BRANCH  61  62
ATOM     62  CD  LYS     2      33.890  28.930  32.133  1.00  0.00     0.032 C 
BRANCH  62  63
ATOM     63  CE  LYS     2      35.075  29.149  31.187  1.00  0.00     0.206 C 
BRANCH  63  64
ATOM     64  NZ  LYS     2      36.357  28.759  31.795  1.00  0.00    -0.064 N 
ATOM     65  HZ3 LYS     2      36.335  27.790  32.040  1.00 99.99     0.275 HD
ATOM     66  HZ1 LYS     2      37.096  28.915  31.139  1.00 99.99     0.275 HD
ATOM     67  HZ2 LYS     2      36.524  29.309  32.613  1.00 99.99     0.275 HD
ENDBRANCH  63  64
ENDBRANCH  62  63
ENDBRANCH  61  62
ENDBRANCH  60  61
ENDBRANCH  10  60
ENDBRANCH   8  10
ENDBRANCH   5   6
BRANCH   5  68
ATOM     68  CB  LYS     1      26.924  31.299  34.267  1.00  0.00     0.040 C 
BRANCH  68  69
ATOM     69  CG  LYS     1      26.647  32.626  33.535  1.00  0.00     0.004 C 
BRANCH  69  70
ATOM     70  CD  LYS     1      26.664  33.867  34.444  1.00  0.00     0.032 C 
BRANCH  70  71
ATOM     71  CE  LYS     1      26.313  35.140  33.659  1.00  0.00     0.206 C 
BRANCH  71  72
ATOM     72  NZ  LYS     1      26.228  36.349  34.499  1.00  0.00    -0.064 N 
ATOM     73  HZ1 LYS     1      26.004  37.140  33.926  1.00 99.99     0.275 HD
ATOM     74  HZ2 LYS     1      25.510  36.239  35.187  1.00 99.99     0.275 HD
ATOM     75  HZ3 LYS     1      27.102  36.518  34.954  1.00 99.99     0.275 HD
ENDBRANCH  71  72
ENDBRANCH  70  71
ENDBRANCH  69  70
ENDBRANCH  68  69
ENDBRANCH   5  68
ENDBRANCH   1   5
TORSDOF 33
