REMARK WARNING: 32 MAX_TORS EXCEEDED!!!
REMARK  33 active torsions:
REMARK  status: ('A' for Active; 'I' for Inactive)
REMARK    1  A    between atoms: N_1  and  CA_2 
REMARK    2  A    between atoms: CA_2  and  C_3 
REMARK    3  A    between atoms: CA_2  and  CB_5 
REMARK       I    between atoms: C_3  and  N_16 
REMARK    4  A    between atoms: CB_5  and  CG_6 
REMARK    5  A    between atoms: CG_6  and  CD_7 
REMARK    6  A    between atoms: CD_7  and  CE_8 
REMARK    7  A    between atoms: CE_8  and  NZ_9 
REMARK    8  A    between atoms: N_16  and  CA_17 
REMARK    9  A    between atoms: CA_17  and  C_18 
REMARK   10  A    between atoms: CA_17  and  CB_20 
REMARK       I    between atoms: C_18  and  N_29 
REMARK   11  A    between atoms: CB_20  and  CG_21 
REMARK   12  A    between atoms: CG_21  and  CD_22 
REMARK   13  A    between atoms: CD_22  and  CE_23 
REMARK   14  A    between atoms: CE_23  and  NZ_24 
REMARK   15  A    between atoms: N_29  and  CA_30 
REMARK   16  A    between atoms: CA_30  and  C_31 
REMARK   17  A    between atoms: CA_30  and  CB_33 
REMARK       I    between atoms: C_31  and  N_42 
REMARK   18  A    between atoms: CB_33  and  CG_34 
REMARK   19  A    between atoms: CG_34  and  CD_35 
REMARK   20  A    between atoms: CD_35  and  CE_36 
REMARK   21  A    between atoms: CE_36  and  NZ_37 
REMARK   22  A    between atoms: N_42  and  CA_43 
REMARK   23  A    between atoms: CA_43  and  C_44 
REMARK   24  A    between atoms: CA_43  and  CB_46 
REMARK       I    between atoms: C_44  and  N_51 
REMARK   25  A    between atoms: CB_46  and  CG_47 
REMARK   26  A    between atoms: N_51  and  CA_52 
REMARK   27  A    between atoms: CA_52  and  C_53 
REMARK       I    between atoms: C_53  and  N_57 
REMARK   28  A    between atoms: N_57  and  CA_58 
REMARK   29  A    between atoms: CA_58  and  C_59 
REMARK   30  A    between atoms: CA_58  and  CB_61 
REMARK       I    between atoms: C_59  and  N_69 
REMARK   31  A    between atoms: CB_61  and  CG_62 
REMARK   32  A    between atoms: N_69  and  CA_70 
REMARK   33  A    between atoms: CA_70  and  C_71 
ROOT
ATOM      1  N   LYS     1      27.918  25.205  33.624  1.00  0.00    -0.058 N 
ATOM      2  H1  LYS     1      28.683  25.848  33.593  1.00 99.99     0.276 HD
ATOM      3  H2  LYS     1      27.552  25.171  34.534  1.00 99.99     0.276 HD
ATOM      4  H3  LYS     1      28.273  24.291  33.453  1.00 99.99     0.276 HD
ENDROOT
BRANCH   1   5
ATOM      5  CA  LYS     1      26.915  25.599  32.607  1.00  0.00     0.255 C 
BRANCH   5   6
ATOM      6  C   LYS     1      27.397  26.878  31.878  1.00  0.00     0.259 C 
ATOM      7  O   LYS     1      28.425  26.740  31.220  1.00  0.00    -0.271 OA
ATOM      8  N   LYS     2      26.956  28.091  32.258  1.00  0.00    -0.338 N 
ATOM      9  H   LYS     2      26.350  28.191  33.046  1.00 99.99     0.164 HD
BRANCH   8  10
ATOM     10  CA  LYS     2      27.250  29.382  31.569  1.00  0.00     0.159 C 
BRANCH  10  11
ATOM     11  C   LYS     2      28.421  29.404  30.556  1.00  0.00     0.251 C 
ATOM     12  O   LYS     2      28.158  29.414  29.356  1.00  0.00    -0.271 OA
ATOM     13  N   LYS     3      29.670  29.261  31.019  1.00  0.00    -0.338 N 
ATOM     14  H   LYS     3      29.859  29.236  31.999  1.00 99.99     0.164 HD
BRANCH  13  15
ATOM     15  CA  LYS     3      30.878  29.184  30.158  1.00  0.00     0.159 C 
BRANCH  15  16
ATOM     16  C   LYS     3      30.714  28.288  28.902  1.00  0.00     0.251 C 
ATOM     17  N   LEU     4      30.192  27.076  29.099  1.00  0.00    -0.338 N 
ATOM     18  H   LEU     4      29.833  26.812  29.999  1.00 99.99     0.164 HD
ATOM     19  O   LYS     3      30.802  28.794  27.784  1.00  0.00    -0.271 OA
BRANCH  17  20
ATOM     20  CA  LEU     4      29.954  26.056  28.047  1.00  0.00     0.159 C 
BRANCH  20  21
ATOM     21  C   LEU     4      28.776  26.322  27.081  1.00  0.00     0.251 C 
ATOM     22  N   ALA     5      28.079  27.430  27.315  1.00  0.00    -0.338 N 
ATOM     23  H   ALA     5      28.233  27.968  28.145  1.00 99.99     0.164 HD
ATOM     24  O   LEU     4      28.387  25.444  26.313  1.00  0.00    -0.271 OA
BRANCH  22  25
ATOM     25  CA  ALA     5      26.971  27.932  26.474  1.00  0.00     0.159 C 
ATOM     26  CB  ALA     5      25.693  27.889  27.318  1.00  0.00     0.034 C 
BRANCH  25  27
ATOM     27  C   ALA     5      27.220  29.355  25.925  1.00  0.00     0.251 C 
ATOM     28  N   PHE     6      28.394  29.888  26.261  1.00  0.00    -0.337 N 
ATOM     29  H   PHE     6      28.928  29.489  27.004  1.00 99.99     0.164 HD
ATOM     30  O   ALA     5      26.337  29.982  25.342  1.00  0.00    -0.271 OA
BRANCH  28  31
ATOM     31  CA  PHE     6      28.949  31.159  25.755  1.00  0.00     0.164 C 
BRANCH  31  32
ATOM     32  C   PHE     6      30.114  30.910  24.772  1.00  0.00     0.251 C 
ATOM     33  O   PHE     6      30.425  31.746  23.928  1.00  0.00    -0.271 OA
ATOM     34  N   ALA     7      30.784  29.775  24.960  1.00  0.00    -0.336 N 
ATOM     35  H   ALA     7      30.560  29.167  25.721  1.00 99.99     0.164 HD
BRANCH  34  36
ATOM     36  CA  ALA     7      31.876  29.289  24.094  1.00  0.00     0.168 C 
ATOM     37  CB  ALA     7      33.049  28.877  24.989  1.00  0.00     0.036 C 
BRANCH  36  38
ATOM     38  C   ALA     7      31.396  28.070  23.288  1.00  0.00     0.206 C 
ATOM     39  O   ALA     7      31.563  28.083  22.050  1.00 99.99    -0.646 OA
ATOM     40  OXT ALA     7      30.771  27.204  23.940  1.00 99.99    -0.646 OA
ENDBRANCH  36  38
ENDBRANCH  34  36
ENDBRANCH  31  32
BRANCH  31  41
ATOM     41  CB  PHE     6      29.409  31.972  26.974  1.00  0.00     0.056 C 
BRANCH  41  42
ATOM     42  CG  PHE     6      30.107  33.284  26.604  1.00  0.00    -0.044 A 
ATOM     43  CD1 PHE     6      29.349  34.394  26.250  1.00  0.00     0.008 A 
ATOM     44  CE1 PHE     6      29.976  35.529  25.750  1.00  0.00     0.001 A 
ATOM     45  CZ  PHE     6      31.360  35.563  25.629  1.00  0.00     0.000 A 
ATOM     46  CE2 PHE     6      32.119  34.466  26.016  1.00  0.00     0.001 A 
ATOM     47  CD2 PHE     6      31.493  33.327  26.505  1.00  0.00     0.008 A 
ENDBRANCH  41  42
ENDBRANCH  31  41
ENDBRANCH  28  31
ENDBRANCH  25  27
ENDBRANCH  22  25
ENDBRANCH  20  21
BRANCH  20  48
ATOM     48  CB  LEU     4      29.732  24.694  28.718  1.00  0.00     0.032 C 
BRANCH  48  49
ATOM     49  CG  LEU     4      30.937  24.137  29.482  1.00  0.00     0.002 C 
ATOM     50  CD2 LEU     4      32.096  23.793  28.542  1.00  0.00     0.000 C 
ATOM     51  CD1 LEU     4      30.496  22.882  30.237  1.00  0.00     0.000 C 
ENDBRANCH  48  49
ENDBRANCH  20  48
ENDBRANCH  17  20
ENDBRANCH  15  16
BRANCH  15  52
ATOM     52  CB  LYS     3      32.071  28.728  31.016  1.00  0.00     0.032 C 
BRANCH  52  53
ATOM     53  CG  LYS     3      33.409  28.845  30.274  1.00  0.00     0.004 C 
BRANCH  53  54
ATOM     54  CD  LYS     3      34.603  28.371  31.108  1.00  0.00     0.032 C 
BRANCH  54  55
ATOM     55  CE  LYS     3      35.888  28.486  30.283  1.00  0.00     0.206 C 
BRANCH  55  56
ATOM     56  NZ  LYS     3      37.079  28.050  31.025  1.00  0.00    -0.064 N 
ATOM     57  HZ1 LYS     3      37.885  28.143  30.439  1.00 99.99     0.275 HD
ATOM     58  HZ2 LYS     3      37.200  28.619  31.839  1.00 99.99     0.275 HD
ATOM     59  HZ3 LYS     3      36.980  27.092  31.296  1.00 99.99     0.275 HD
ENDBRANCH  55  56
ENDBRANCH  54  55
ENDBRANCH  53  54
ENDBRANCH  52  53
ENDBRANCH  15  52
ENDBRANCH  13  15
ENDBRANCH  10  11
BRANCH  10  60
ATOM     60  CB  LYS     2      27.302  30.566  32.554  1.00  0.00     0.032 C 
BRANCH  60  61
ATOM     61  CG  LYS     2      27.162  31.915  31.826  1.00  0.00     0.004 C 
BRANCH  61  62
ATOM     62  CD  LYS     2      27.090  33.132  32.757  1.00  0.00     0.032 C 
BRANCH  62  63
ATOM     63  CE  LYS     2      26.933  34.421  31.939  1.00  0.00     0.206 C 
BRANCH  63  64
ATOM     64  NZ  LYS     2      26.834  35.633  32.771  1.00  0.00    -0.064 N 
ATOM     65  HZ2 LYS     2      26.033  35.574  33.367  1.00 99.99     0.275 HD
ATOM     66  HZ1 LYS     2      26.738  36.434  32.179  1.00 99.99     0.275 HD
ATOM     67  HZ3 LYS     2      27.659  35.736  33.326  1.00 99.99     0.275 HD
ENDBRANCH  63  64
ENDBRANCH  62  63
ENDBRANCH  61  62
ENDBRANCH  60  61
ENDBRANCH  10  60
ENDBRANCH   8  10
ENDBRANCH   5   6
BRANCH   5  68
ATOM     68  CB  LYS     1      25.480  25.654  33.179  1.00  0.00     0.040 C 
BRANCH  68  69
ATOM     69  CG  LYS     1      24.427  25.416  32.083  1.00  0.00     0.004 C 
BRANCH  69  70
ATOM     70  CD  LYS     1      23.023  25.093  32.620  1.00  0.00     0.032 C 
BRANCH  70  71
ATOM     71  CE  LYS     1      22.062  24.748  31.473  1.00  0.00     0.206 C 
BRANCH  71  72
ATOM     72  NZ  LYS     1      20.726  24.322  31.928  1.00  0.00    -0.064 N 
ATOM     73  HZ1 LYS     1      20.153  24.116  31.134  1.00 99.99     0.275 HD
ATOM     74  HZ2 LYS     1      20.802  23.499  32.492  1.00 99.99     0.275 HD
ATOM     75  HZ3 LYS     1      20.292  25.051  32.459  1.00 99.99     0.275 HD
ENDBRANCH  71  72
ENDBRANCH  70  71
ENDBRANCH  69  70
ENDBRANCH  68  69
ENDBRANCH   5  68
ENDBRANCH   1   5
TORSDOF 33
