REMARK  29 active torsions:
REMARK  status: ('A' for Active; 'I' for Inactive)
REMARK    1  A    between atoms: N_1  and  CA_2 
REMARK    2  A    between atoms: CA_2  and  CB_5 
REMARK    3  A    between atoms: CA_2  and  C_3 
REMARK       I    between atoms: C_3  and  N_16 
REMARK    4  A    between atoms: CB_5  and  CG_6 
REMARK    5  A    between atoms: CG_6  and  CD_7 
REMARK    6  A    between atoms: CD_7  and  CE_8 
REMARK    7  A    between atoms: CE_8  and  NZ_9 
REMARK    8  A    between atoms: N_16  and  CA_17 
REMARK    9  A    between atoms: CA_17  and  C_18 
REMARK   10  A    between atoms: CA_17  and  CB_20 
REMARK       I    between atoms: C_18  and  N_29 
REMARK   11  A    between atoms: CB_20  and  CG_21 
REMARK   12  A    between atoms: CG_21  and  CD_22 
REMARK   13  A    between atoms: CD_22  and  CE_23 
REMARK   14  A    between atoms: CE_23  and  NZ_24 
REMARK   15  A    between atoms: N_29  and  CA_30 
REMARK   16  A    between atoms: CA_30  and  CB_33 
REMARK   17  A    between atoms: CA_30  and  C_31 
REMARK       I    between atoms: C_31  and  N_42 
REMARK   18  A    between atoms: CB_33  and  CG_34 
REMARK   19  A    between atoms: CG_34  and  CD_35 
REMARK   20  A    between atoms: CD_35  and  CE_36 
REMARK   21  A    between atoms: CE_36  and  NZ_37 
REMARK   22  A    between atoms: N_42  and  CA_43 
REMARK   23  A    between atoms: CA_43  and  C_44 
REMARK       I    between atoms: C_44  and  N_47 
REMARK   24  A    between atoms: N_47  and  CA_48 
REMARK   25  A    between atoms: CA_48  and  C_49 
REMARK       I    between atoms: C_49  and  N_52 
REMARK   26  A    between atoms: N_52  and  CA_53 
REMARK   27  A    between atoms: CA_53  and  C_54 
REMARK       I    between atoms: C_54  and  N_57 
REMARK   28  A    between atoms: N_57  and  CA_58 
REMARK   29  A    between atoms: CA_58  and  C_59 
ROOT
ATOM      1  N   LYS     1      26.760  31.747  30.052  1.00  0.00    -0.058 N 
ATOM      2  H1  LYS     1      27.725  31.785  30.319  1.00 99.99     0.276 HD
ATOM      3  H2  LYS     1      26.723  32.406  29.172  1.00 99.99     0.276 HD
ATOM      4  H3  LYS     1      26.322  32.225  30.679  1.00 99.99     0.276 HD
ENDROOT
BRANCH   1   5
ATOM      5  CA  LYS     1      26.458  30.323  29.748  1.00  0.00     0.255 C 
BRANCH   5   6
ATOM      6  CB  LYS     1      25.908  30.173  28.318  1.00  0.00     0.040 C 
BRANCH   6   7
ATOM      7  CG  LYS     1      24.627  30.980  28.072  1.00  0.00     0.004 C 
BRANCH   7   8
ATOM      8  CD  LYS     1      24.145  30.856  26.623  1.00  0.00     0.032 C 
BRANCH   8   9
ATOM      9  CE  LYS     1      22.865  31.668  26.404  1.00  0.00     0.206 C 
BRANCH   9  10
ATOM     10  NZ  LYS     1      22.367  31.538  25.026  1.00  0.00    -0.064 N 
ATOM     11  HZ3 LYS     1      22.165  30.578  24.831  1.00 99.99     0.275 HD
ATOM     12  HZ2 LYS     1      23.060  31.870  24.386  1.00 99.99     0.275 HD
ATOM     13  HZ1 LYS     1      21.532  32.079  24.920  1.00 99.99     0.275 HD
ENDBRANCH   9  10
ENDBRANCH   8   9
ENDBRANCH   7   8
ENDBRANCH   6   7
ENDBRANCH   5   6
BRANCH   5  14
ATOM     14  C   LYS     1      27.670  29.361  29.923  1.00  0.00     0.259 C 
ATOM     15  N   LYS     2      28.913  29.791  29.656  1.00  0.00    -0.338 N 
ATOM     16  H   LYS     2      29.104  30.716  29.310  1.00 99.99     0.164 HD
ATOM     17  O   LYS     1      27.462  28.202  30.283  1.00  0.00    -0.271 OA
BRANCH  15  18
ATOM     18  CA  LYS     2      30.135  28.988  29.921  1.00  0.00     0.159 C 
BRANCH  18  19
ATOM     19  C   LYS     2      30.503  28.957  31.419  1.00  0.00     0.251 C 
ATOM     20  O   LYS     2      30.382  29.972  32.106  1.00  0.00    -0.271 OA
ATOM     21  N   LYS     3      31.150  27.861  31.831  1.00  0.00    -0.338 N 
ATOM     22  H   LYS     3      31.366  27.142  31.173  1.00 99.99     0.164 HD
BRANCH  21  23
ATOM     23  CA  LYS     3      31.527  27.516  33.226  1.00  0.00     0.159 C 
BRANCH  23  24
ATOM     24  CB  LYS     3      32.655  26.468  33.195  1.00  0.00     0.032 C 
BRANCH  24  25
ATOM     25  CG  LYS     3      32.952  25.865  34.575  1.00  0.00     0.004 C 
BRANCH  25  26
ATOM     26  CD  LYS     3      34.138  24.899  34.548  1.00  0.00     0.032 C 
BRANCH  26  27
ATOM     27  CE  LYS     3      34.422  24.372  35.958  1.00  0.00     0.206 C 
BRANCH  27  28
ATOM     28  NZ  LYS     3      35.556  23.435  35.982  1.00  0.00    -0.064 N 
ATOM     29  HZ1 LYS     3      35.703  23.120  36.920  1.00 99.99     0.275 HD
ATOM     30  HZ3 LYS     3      36.382  23.893  35.655  1.00 99.99     0.275 HD
ATOM     31  HZ2 LYS     3      35.354  22.648  35.399  1.00 99.99     0.275 HD
ENDBRANCH  27  28
ENDBRANCH  26  27
ENDBRANCH  25  26
ENDBRANCH  24  25
ENDBRANCH  23  24
BRANCH  23  32
ATOM     32  C   LYS     3      31.847  28.688  34.186  1.00  0.00     0.251 C 
ATOM     33  N   GLY     4      33.026  29.305  34.009  1.00  0.00    -0.336 N 
ATOM     34  H   GLY     4      33.720  28.977  33.363  1.00 99.99     0.164 HD
ATOM     35  O   LYS     3      31.115  28.891  35.152  1.00  0.00    -0.271 OA
BRANCH  33  36
ATOM     36  CA  GLY     4      33.474  30.433  34.858  1.00  0.00     0.189 C 
BRANCH  36  37
ATOM     37  C   GLY     4      33.447  31.796  34.147  1.00  0.00     0.253 C 
ATOM     38  O   GLY     4      33.031  32.799  34.727  1.00  0.00    -0.270 OA
ATOM     39  N   GLY     5      33.804  31.783  32.856  1.00  0.00    -0.336 N 
ATOM     40  H   GLY     5      33.987  30.945  32.336  1.00 99.99     0.164 HD
BRANCH  39  41
ATOM     41  CA  GLY     5      33.888  33.003  32.032  1.00  0.00     0.189 C 
BRANCH  41  42
ATOM     42  C   GLY     5      32.642  33.161  31.156  1.00  0.00     0.253 C 
ATOM     43  N   GLY     6      31.674  33.883  31.731  1.00  0.00    -0.336 N 
ATOM     44  H   GLY     6      31.736  34.132  32.707  1.00 99.99     0.164 HD
ATOM     45  O   GLY     5      32.566  32.564  30.080  1.00  0.00    -0.270 OA
BRANCH  43  46
ATOM     46  CA  GLY     6      30.388  34.314  31.131  1.00  0.00     0.189 C 
BRANCH  46  47
ATOM     47  C   GLY     6      29.962  33.704  29.789  1.00  0.00     0.253 C 
ATOM     48  N   GLY     7      29.629  34.603  28.860  1.00  0.00    -0.334 N 
ATOM     49  H   GLY     7      29.692  35.597  29.030  1.00 99.99     0.164 HD
ATOM     50  O   GLY     6      29.707  32.497  29.714  1.00  0.00    -0.270 OA
BRANCH  48  51
ATOM     51  CA  GLY     7      29.171  34.280  27.484  1.00  0.00     0.199 C 
BRANCH  51  52
ATOM     52  C   GLY     7      27.822  33.541  27.402  1.00  0.00     0.209 C 
ATOM     53  O   GLY     7      26.933  34.042  26.680  1.00 99.99    -0.646 OA
ATOM     54  OXT GLY     7      27.658  32.570  28.170  1.00 99.99    -0.646 OA
ENDBRANCH  51  52
ENDBRANCH  48  51
ENDBRANCH  46  47
ENDBRANCH  43  46
ENDBRANCH  41  42
ENDBRANCH  39  41
ENDBRANCH  36  37
ENDBRANCH  33  36
ENDBRANCH  23  32
ENDBRANCH  21  23
ENDBRANCH  18  19
BRANCH  18  55
ATOM     55  CB  LYS     2      31.333  29.524  29.125  1.00  0.00     0.032 C 
BRANCH  55  56
ATOM     56  CG  LYS     2      31.142  29.433  27.608  1.00  0.00     0.004 C 
BRANCH  56  57
ATOM     57  CD  LYS     2      32.362  30.001  26.880  1.00  0.00     0.032 C 
BRANCH  57  58
ATOM     58  CE  LYS     2      32.168  29.968  25.363  1.00  0.00     0.206 C 
BRANCH  58  59
ATOM     59  NZ  LYS     2      33.348  30.509  24.672  1.00  0.00    -0.064 N 
ATOM     60  HZ3 LYS     2      34.150  29.957  24.899  1.00 99.99     0.275 HD
ATOM     61  HZ2 LYS     2      33.501  31.454  24.962  1.00 99.99     0.275 HD
ATOM     62  HZ1 LYS     2      33.197  30.484  23.683  1.00 99.99     0.275 HD
ENDBRANCH  58  59
ENDBRANCH  57  58
ENDBRANCH  56  57
ENDBRANCH  55  56
ENDBRANCH  18  55
ENDBRANCH  15  18
ENDBRANCH   5  14
ENDBRANCH   1   5
TORSDOF 29
