REMARK WARNING: 32 MAX_TORS EXCEEDED!!!
REMARK  33 active torsions:
REMARK  status: ('A' for Active; 'I' for Inactive)
REMARK    1  A    between atoms: N_1  and  CA_2 
REMARK    2  A    between atoms: CA_2  and  C_3 
REMARK       I    between atoms: C_3  and  N_9 
REMARK    3  A    between atoms: N_9  and  CA_10 
REMARK    4  A    between atoms: CA_10  and  C_11 
REMARK    5  A    between atoms: CA_10  and  CB_13 
REMARK       I    between atoms: C_11  and  N_21 
REMARK    6  A    between atoms: CB_13  and  CG_14 
REMARK    7  A    between atoms: N_21  and  CA_22 
REMARK    8  A    between atoms: CA_22  and  C_23 
REMARK       I    between atoms: C_23  and  N_27 
REMARK    9  A    between atoms: N_27  and  CA_28 
REMARK   10  A    between atoms: CA_28  and  C_29 
REMARK   11  A    between atoms: CA_28  and  CB_31 
REMARK       I    between atoms: C_29  and  N_36 
REMARK   12  A    between atoms: CB_31  and  CG_32 
REMARK   13  A    between atoms: N_36  and  CA_37 
REMARK   14  A    between atoms: CA_37  and  C_38 
REMARK   15  A    between atoms: CA_37  and  CB_40 
REMARK       I    between atoms: C_38  and  N_49 
REMARK   16  A    between atoms: CB_40  and  CG_41 
REMARK   17  A    between atoms: CG_41  and  CD_42 
REMARK   18  A    between atoms: CD_42  and  CE_43 
REMARK   19  A    between atoms: CE_43  and  NZ_44 
REMARK   20  A    between atoms: N_49  and  CA_50 
REMARK   21  A    between atoms: CA_50  and  C_51 
REMARK   22  A    between atoms: CA_50  and  CB_53 
REMARK       I    between atoms: C_51  and  N_62 
REMARK   23  A    between atoms: CB_53  and  CG_54 
REMARK   24  A    between atoms: CG_54  and  CD_55 
REMARK   25  A    between atoms: CD_55  and  CE_56 
REMARK   26  A    between atoms: CE_56  and  NZ_57 
REMARK   27  A    between atoms: N_62  and  CA_63 
REMARK   28  A    between atoms: CA_63  and  C_64 
REMARK   29  A    between atoms: CA_63  and  CB_66 
REMARK   30  A    between atoms: CB_66  and  CG_67 
REMARK   31  A    between atoms: CG_67  and  CD_68 
REMARK   32  A    between atoms: CD_68  and  CE_69 
REMARK   33  A    between atoms: CE_69  and  NZ_70 
ROOT
ATOM      1  N   ALA     1      25.495  34.320  29.482  1.00  0.00    -0.058 N 
ATOM      2  H1  ALA     1      25.303  33.389  29.787  1.00 99.99     0.276 HD
ATOM      3  H2  ALA     1      25.384  34.955  30.231  1.00 99.99     0.276 HD
ATOM      4  H3  ALA     1      24.803  34.592  28.818  1.00 99.99     0.276 HD
ENDROOT
BRANCH   1   5
ATOM      5  CA  ALA     1      26.858  34.381  28.905  1.00  0.00     0.255 C 
ATOM      6  CB  ALA     1      27.672  35.516  29.550  1.00  0.00     0.042 C 
BRANCH   5   7
ATOM      7  C   ALA     1      27.592  33.013  28.922  1.00  0.00     0.259 C 
ATOM      8  O   ALA     1      27.245  32.171  28.097  1.00  0.00    -0.271 OA
ATOM      9  N   PHE     2      28.304  32.678  30.009  1.00  0.00    -0.337 N 
ATOM     10  H   PHE     2      28.384  33.294  30.792  1.00 99.99     0.164 HD
BRANCH   9  11
ATOM     11  CA  PHE     2      29.154  31.467  30.106  1.00  0.00     0.164 C 
BRANCH  11  12
ATOM     12  C   PHE     2      28.510  30.136  29.663  1.00  0.00     0.251 C 
ATOM     13  N   ALA     3      27.272  29.870  30.094  1.00  0.00    -0.338 N 
ATOM     14  H   ALA     3      26.861  30.392  30.836  1.00 99.99     0.164 HD
ATOM     15  O   PHE     2      29.104  29.434  28.848  1.00  0.00    -0.271 OA
BRANCH  13  16
ATOM     16  CA  ALA     3      26.480  28.695  29.660  1.00  0.00     0.159 C 
ATOM     17  CB  ALA     3      25.043  28.832  30.179  1.00  0.00     0.034 C 
BRANCH  16  18
ATOM     18  C   ALA     3      26.511  28.485  28.130  1.00  0.00     0.251 C 
ATOM     19  O   ALA     3      27.251  27.623  27.666  1.00  0.00    -0.271 OA
ATOM     20  N   LEU     4      25.969  29.465  27.403  1.00  0.00    -0.338 N 
ATOM     21  H   LEU     4      25.472  30.199  27.857  1.00 99.99     0.164 HD
BRANCH  20  22
ATOM     22  CA  LEU     4      25.914  29.572  25.925  1.00  0.00     0.159 C 
BRANCH  22  23
ATOM     23  C   LEU     4      27.253  29.509  25.157  1.00  0.00     0.251 C 
ATOM     24  O   LEU     4      27.259  29.564  23.929  1.00  0.00    -0.271 OA
ATOM     25  N   LYS     5      28.364  29.587  25.888  1.00  0.00    -0.338 N 
ATOM     26  H   LYS     5      28.329  29.795  26.865  1.00 99.99     0.164 HD
BRANCH  25  27
ATOM     27  CA  LYS     5      29.733  29.445  25.345  1.00  0.00     0.159 C 
BRANCH  27  28
ATOM     28  C   LYS     5      30.408  28.085  25.629  1.00  0.00     0.251 C 
ATOM     29  O   LYS     5      31.530  27.846  25.185  1.00  0.00    -0.271 OA
ATOM     30  N   LYS     6      29.770  27.268  26.467  1.00  0.00    -0.338 N 
ATOM     31  H   LYS     6      28.918  27.558  26.905  1.00 99.99     0.164 HD
BRANCH  30  32
ATOM     32  CA  LYS     6      30.281  25.949  26.907  1.00  0.00     0.159 C 
BRANCH  32  33
ATOM     33  C   LYS     6      29.286  24.785  26.684  1.00  0.00     0.251 C 
ATOM     34  N   LYS     7      28.000  25.119  26.749  1.00  0.00    -0.336 N 
ATOM     35  H   LYS     7      27.732  26.067  26.938  1.00 99.99     0.164 HD
ATOM     36  O   LYS     6      29.669  23.618  26.644  1.00  0.00    -0.271 OA
BRANCH  34  37
ATOM     37  CA  LYS     7      26.848  24.218  26.525  1.00  0.00     0.168 C 
BRANCH  37  38
ATOM     38  C   LYS     7      25.796  24.972  25.697  1.00  0.00     0.206 C 
ATOM     39  OXT LYS     7      25.516  26.120  26.114  1.00 99.99    -0.646 OA
ATOM     40  O   LYS     7      25.305  24.407  24.696  1.00 99.99    -0.646 OA
ENDBRANCH  37  38
BRANCH  37  41
ATOM     41  CB  LYS     7      26.148  23.879  27.844  1.00  0.00     0.033 C 
BRANCH  41  42
ATOM     42  CG  LYS     7      26.954  23.144  28.913  1.00  0.00     0.004 C 
BRANCH  42  43
ATOM     43  CD  LYS     7      25.981  22.909  30.067  1.00  0.00     0.032 C 
BRANCH  43  44
ATOM     44  CE  LYS     7      26.568  22.104  31.222  1.00  0.00     0.206 C 
BRANCH  44  45
ATOM     45  NZ  LYS     7      25.487  21.823  32.177  1.00  0.00    -0.064 N 
ATOM     46  HZ1 LYS     7      25.842  21.295  32.946  1.00 99.99     0.275 HD
ATOM     47  HZ2 LYS     7      25.101  22.686  32.505  1.00 99.99     0.275 HD
ATOM     48  HZ3 LYS     7      24.772  21.299  31.712  1.00 99.99     0.275 HD
ENDBRANCH  44  45
ENDBRANCH  43  44
ENDBRANCH  42  43
ENDBRANCH  41  42
ENDBRANCH  37  41
ENDBRANCH  34  37
ENDBRANCH  32  33
BRANCH  32  49
ATOM     49  CB  LYS     6      30.656  26.070  28.390  1.00  0.00     0.032 C 
BRANCH  49  50
ATOM     50  CG  LYS     6      31.512  24.886  28.847  1.00  0.00     0.004 C 
BRANCH  50  51
ATOM     51  CD  LYS     6      31.781  24.894  30.349  1.00  0.00     0.032 C 
BRANCH  51  52
ATOM     52  CE  LYS     6      32.553  23.626  30.713  1.00  0.00     0.206 C 
BRANCH  52  53
ATOM     53  NZ  LYS     6      32.900  23.585  32.139  1.00  0.00    -0.064 N 
ATOM     54  HZ3 LYS     6      32.064  23.612  32.686  1.00 99.99     0.275 HD
ATOM     55  HZ2 LYS     6      33.478  24.370  32.359  1.00 99.99     0.275 HD
ATOM     56  HZ1 LYS     6      33.397  22.739  32.328  1.00 99.99     0.275 HD
ENDBRANCH  52  53
ENDBRANCH  51  52
ENDBRANCH  50  51
ENDBRANCH  49  50
ENDBRANCH  32  49
ENDBRANCH  30  32
ENDBRANCH  27  28
BRANCH  27  57
ATOM     57  CB  LYS     5      30.627  30.556  25.905  1.00  0.00     0.032 C 
BRANCH  57  58
ATOM     58  CG  LYS     5      30.332  31.937  25.319  1.00  0.00     0.004 C 
BRANCH  58  59
ATOM     59  CD  LYS     5      31.439  32.901  25.748  1.00  0.00     0.032 C 
BRANCH  59  60
ATOM     60  CE  LYS     5      31.305  34.262  25.063  1.00  0.00     0.206 C 
BRANCH  60  61
ATOM     61  NZ  LYS     5      32.484  35.094  25.344  1.00  0.00    -0.064 N 
ATOM     62  HZ3 LYS     5      33.302  34.631  25.001  1.00 99.99     0.275 HD
ATOM     63  HZ2 LYS     5      32.572  35.234  26.329  1.00 99.99     0.275 HD
ATOM     64  HZ1 LYS     5      32.388  35.977  24.884  1.00 99.99     0.275 HD
ENDBRANCH  60  61
ENDBRANCH  59  60
ENDBRANCH  58  59
ENDBRANCH  57  58
ENDBRANCH  27  57
ENDBRANCH  25  27
ENDBRANCH  22  23
BRANCH  22  65
ATOM     65  CB  LEU     4      25.226  30.898  25.569  1.00  0.00     0.032 C 
BRANCH  65  66
ATOM     66  CG  LEU     4      23.794  31.049  26.094  1.00  0.00     0.002 C 
ATOM     67  CD2 LEU     4      22.829  30.092  25.387  1.00  0.00     0.000 C 
ATOM     68  CD1 LEU     4      23.335  32.493  25.885  1.00  0.00     0.000 C 
ENDBRANCH  65  66
ENDBRANCH  22  65
ENDBRANCH  20  22
ENDBRANCH  16  18
ENDBRANCH  13  16
ENDBRANCH  11  12
BRANCH  11  69
ATOM     69  CB  PHE     2      29.728  31.369  31.527  1.00  0.00     0.056 C 
BRANCH  69  70
ATOM     70  CG  PHE     2      30.697  30.196  31.716  1.00  0.00    -0.044 A 
ATOM     71  CD2 PHE     2      30.290  29.075  32.430  1.00  0.00     0.008 A 
ATOM     72  CE2 PHE     2      31.193  28.056  32.704  1.00  0.00     0.001 A 
ATOM     73  CZ  PHE     2      32.507  28.153  32.260  1.00  0.00     0.000 A 
ATOM     74  CE1 PHE     2      32.910  29.265  31.531  1.00  0.00     0.001 A 
ATOM     75  CD1 PHE     2      32.010  30.289  31.267  1.00  0.00     0.008 A 
ENDBRANCH  69  70
ENDBRANCH  11  69
ENDBRANCH   9  11
ENDBRANCH   5   7
ENDBRANCH   1   5
TORSDOF 33
