REMARK WARNING: 32 MAX_TORS EXCEEDED!!!
REMARK  34 active torsions:
REMARK  status: ('A' for Active; 'I' for Inactive)
REMARK    1  A    between atoms: N_1  and  CA_2 
REMARK    2  A    between atoms: CA_2  and  C_3 
REMARK    3  A    between atoms: CA_2  and  CB_5 
REMARK       I    between atoms: C_3  and  N_16 
REMARK    4  A    between atoms: CB_5  and  CG_6 
REMARK    5  A    between atoms: CG_6  and  CD_7 
REMARK    6  A    between atoms: CD_7  and  CE_8 
REMARK    7  A    between atoms: CE_8  and  NZ_9 
REMARK    8  A    between atoms: N_16  and  CA_17 
REMARK    9  A    between atoms: CA_17  and  C_18 
REMARK   10  A    between atoms: CA_17  and  CB_20 
REMARK       I    between atoms: C_18  and  N_29 
REMARK   11  A    between atoms: CB_20  and  CG_21 
REMARK   12  A    between atoms: CG_21  and  CD_22 
REMARK   13  A    between atoms: CD_22  and  CE_23 
REMARK   14  A    between atoms: CE_23  and  NZ_24 
REMARK   15  A    between atoms: N_29  and  CA_30 
REMARK   16  A    between atoms: CA_30  and  C_31 
REMARK   17  A    between atoms: CA_30  and  CB_33 
REMARK       I    between atoms: C_31  and  N_42 
REMARK   18  A    between atoms: CB_33  and  CG_34 
REMARK   19  A    between atoms: CG_34  and  CD_35 
REMARK   20  A    between atoms: CD_35  and  CE_36 
REMARK   21  A    between atoms: CE_36  and  NZ_37 
REMARK   22  A    between atoms: N_42  and  CA_43 
REMARK   23  A    between atoms: CA_43  and  CB_46 
REMARK   24  A    between atoms: CA_43  and  C_44 
REMARK       I    between atoms: C_44  and  N_51 
REMARK   25  A    between atoms: CB_46  and  CG_47 
REMARK   26  A    between atoms: N_51  and  CA_52 
REMARK   27  A    between atoms: CA_52  and  C_53 
REMARK       I    between atoms: C_53  and  N_57 
REMARK   28  A    between atoms: N_57  and  CA_58 
REMARK   29  A    between atoms: CA_58  and  C_59 
REMARK   30  A    between atoms: CA_58  and  CB_61 
REMARK       I    between atoms: C_59  and  N_71 
REMARK   31  A    between atoms: CB_61  and  CG_62 
REMARK   32  A    between atoms: CZ_67  and  OH_68 
REMARK   33  A    between atoms: N_71  and  CA_72 
REMARK   34  A    between atoms: CA_72  and  C_73 
ROOT
ATOM      1  N   LYS     1      29.410  30.919  33.896  1.00  0.00    -0.058 N 
ATOM      2  H1  LYS     1      28.548  30.570  33.528  1.00 99.99     0.276 HD
ATOM      3  H2  LYS     1      29.544  30.571  34.803  1.00 99.99     0.276 HD
ATOM      4  H3  LYS     1      29.322  31.903  34.002  1.00 99.99     0.276 HD
ENDROOT
BRANCH   1   5
ATOM      5  CA  LYS     1      30.502  30.559  32.960  1.00  0.00     0.255 C 
BRANCH   5   6
ATOM      6  C   LYS     1      29.881  29.750  31.793  1.00  0.00     0.259 C 
ATOM      7  N   LYS     2      30.018  28.414  31.738  1.00  0.00    -0.338 N 
ATOM      8  H   LYS     2      30.514  27.918  32.450  1.00 99.99     0.164 HD
ATOM      9  O   LYS     1      29.000  30.337  31.168  1.00  0.00    -0.271 OA
BRANCH   7  10
ATOM     10  CA  LYS     2      29.514  27.533  30.646  1.00  0.00     0.159 C 
BRANCH  10  11
ATOM     11  C   LYS     2      28.678  28.176  29.514  1.00  0.00     0.251 C 
ATOM     12  N   LYS     3      27.398  28.484  29.763  1.00  0.00    -0.338 N 
ATOM     13  H   LYS     3      26.953  28.186  30.606  1.00 99.99     0.164 HD
ATOM     14  O   LYS     2      29.258  28.538  28.495  1.00  0.00    -0.271 OA
BRANCH  12  15
ATOM     15  CA  LYS     3      26.502  29.215  28.830  1.00  0.00     0.159 C 
BRANCH  15  16
ATOM     16  C   LYS     3      27.172  30.386  28.063  1.00  0.00     0.251 C 
ATOM     17  O   LYS     3      27.249  30.336  26.837  1.00  0.00    -0.271 OA
ATOM     18  N   LEU     4      27.871  31.261  28.790  1.00  0.00    -0.338 N 
ATOM     19  H   LEU     4      28.026  31.108  29.770  1.00 99.99     0.164 HD
BRANCH  18  20
ATOM     20  CA  LEU     4      28.589  32.446  28.256  1.00  0.00     0.159 C 
BRANCH  20  21
ATOM     21  CB  LEU     4      28.976  33.363  29.424  1.00  0.00     0.032 C 
BRANCH  21  22
ATOM     22  CG  LEU     4      27.798  34.002  30.168  1.00  0.00     0.002 C 
ATOM     23  CD1 LEU     4      28.337  34.733  31.398  1.00  0.00     0.000 C 
ATOM     24  CD2 LEU     4      27.031  34.986  29.278  1.00  0.00     0.000 C 
ENDBRANCH  21  22
ENDBRANCH  20  21
BRANCH  20  25
ATOM     25  C   LEU     4      29.853  32.170  27.408  1.00  0.00     0.251 C 
ATOM     26  N   ALA     5      30.189  30.890  27.276  1.00  0.00    -0.338 N 
ATOM     27  H   ALA     5      29.743  30.180  27.823  1.00 99.99     0.164 HD
ATOM     28  O   LEU     4      30.605  33.089  27.090  1.00  0.00    -0.271 OA
BRANCH  26  29
ATOM     29  CA  ALA     5      31.287  30.381  26.427  1.00  0.00     0.159 C 
ATOM     30  CB  ALA     5      32.366  29.821  27.359  1.00  0.00     0.034 C 
BRANCH  29  31
ATOM     31  C   ALA     5      30.820  29.311  25.410  1.00  0.00     0.251 C 
ATOM     32  N   TYR     6      29.501  29.142  25.323  1.00  0.00    -0.337 N 
ATOM     33  H   TYR     6      28.895  29.491  26.038  1.00 99.99     0.164 HD
ATOM     34  O   ALA     5      31.625  28.602  24.810  1.00  0.00    -0.271 OA
BRANCH  32  35
ATOM     35  CA  TYR     6      28.808  28.323  24.301  1.00  0.00     0.164 C 
BRANCH  35  36
ATOM     36  C   TYR     6      27.911  29.184  23.385  1.00  0.00     0.251 C 
ATOM     37  O   TYR     6      27.296  28.682  22.447  1.00  0.00    -0.271 OA
ATOM     38  N   ALA     7      27.690  30.425  23.815  1.00  0.00    -0.336 N 
ATOM     39  H   ALA     7      28.069  30.736  24.685  1.00 99.99     0.164 HD
BRANCH  38  40
ATOM     40  CA  ALA     7      26.929  31.462  23.092  1.00  0.00     0.168 C 
ATOM     41  CB  ALA     7      25.806  31.960  24.009  1.00  0.00     0.036 C 
BRANCH  40  42
ATOM     42  C   ALA     7      27.859  32.637  22.748  1.00  0.00     0.206 C 
ATOM     43  OXT ALA     7      28.606  33.024  23.675  1.00 99.99    -0.646 OA
ATOM     44  O   ALA     7      27.895  33.027  21.561  1.00 99.99    -0.646 OA
ENDBRANCH  40  42
ENDBRANCH  38  40
ENDBRANCH  35  36
BRANCH  35  45
ATOM     45  CB  TYR     6      27.902  27.273  24.955  1.00  0.00     0.056 C 
BRANCH  45  46
ATOM     46  CG  TYR     6      28.510  26.255  25.927  1.00  0.00    -0.044 A 
ATOM     47  CD2 TYR     6      27.621  25.649  26.802  1.00  0.00     0.011 A 
ATOM     48  CE2 TYR     6      28.026  24.601  27.616  1.00  0.00     0.037 A 
ATOM     49  CZ  TYR     6      29.337  24.147  27.545  1.00  0.00     0.065 A 
ATOM     50  CE1 TYR     6      30.241  24.763  26.688  1.00  0.00     0.037 A 
ATOM     51  CD1 TYR     6      29.830  25.814  25.875  1.00  0.00     0.011 A 
BRANCH  49  52
ATOM     52  OH  TYR     6      29.708  23.045  28.247  1.00  0.00    -0.361 OA
ATOM     53  HH  TYR     6      28.934  22.718  28.784  1.00 99.99     0.217 HD
ENDBRANCH  49  52
ENDBRANCH  45  46
ENDBRANCH  35  45
ENDBRANCH  32  35
ENDBRANCH  29  31
ENDBRANCH  26  29
ENDBRANCH  20  25
ENDBRANCH  18  20
ENDBRANCH  15  16
BRANCH  15  54
ATOM     54  CB  LYS     3      25.270  29.699  29.614  1.00  0.00     0.032 C 
BRANCH  54  55
ATOM     55  CG  LYS     3      24.174  30.277  28.709  1.00  0.00     0.004 C 
BRANCH  55  56
ATOM     56  CD  LYS     3      22.959  30.780  29.494  1.00  0.00     0.032 C 
BRANCH  56  57
ATOM     57  CE  LYS     3      21.924  31.367  28.529  1.00  0.00     0.206 C 
BRANCH  57  58
ATOM     58  NZ  LYS     3      20.728  31.866  29.225  1.00  0.00    -0.064 N 
ATOM     59  HZ1 LYS     3      20.088  32.239  28.553  1.00 99.99     0.275 HD
ATOM     60  HZ3 LYS     3      20.986  32.586  29.869  1.00 99.99     0.275 HD
ATOM     61  HZ2 LYS     3      20.286  31.116  29.718  1.00 99.99     0.275 HD
ENDBRANCH  57  58
ENDBRANCH  56  57
ENDBRANCH  55  56
ENDBRANCH  54  55
ENDBRANCH  15  54
ENDBRANCH  12  15
ENDBRANCH  10  11
BRANCH  10  62
ATOM     62  CB  LYS     2      28.882  26.237  31.183  1.00  0.00     0.032 C 
BRANCH  62  63
ATOM     63  CG  LYS     2      29.954  25.261  31.688  1.00  0.00     0.004 C 
BRANCH  63  64
ATOM     64  CD  LYS     2      29.382  23.884  32.044  1.00  0.00     0.032 C 
BRANCH  64  65
ATOM     65  CE  LYS     2      30.486  22.941  32.538  1.00  0.00     0.206 C 
BRANCH  65  66
ATOM     66  NZ  LYS     2      29.984  21.589  32.835  1.00  0.00    -0.064 N 
ATOM     67  HZ1 LYS     2      30.738  21.017  33.160  1.00 99.99     0.275 HD
ATOM     68  HZ2 LYS     2      29.278  21.631  33.542  1.00 99.99     0.275 HD
ATOM     69  HZ3 LYS     2      29.604  21.178  32.006  1.00 99.99     0.275 HD
ENDBRANCH  65  66
ENDBRANCH  64  65
ENDBRANCH  63  64
ENDBRANCH  62  63
ENDBRANCH  10  62
ENDBRANCH   7  10
ENDBRANCH   5   6
BRANCH   5  70
ATOM     70  CB  LYS     1      31.697  29.894  33.680  1.00  0.00     0.040 C 
BRANCH  70  71
ATOM     71  CG  LYS     1      33.007  30.084  32.895  1.00  0.00     0.004 C 
BRANCH  71  72
ATOM     72  CD  LYS     1      34.276  29.762  33.701  1.00  0.00     0.032 C 
BRANCH  72  73
ATOM     73  CE  LYS     1      35.537  30.116  32.897  1.00  0.00     0.206 C 
BRANCH  73  74
ATOM     74  NZ  LYS     1      36.791  29.934  33.651  1.00  0.00    -0.064 N 
ATOM     75  HZ3 LYS     1      36.892  28.979  33.929  1.00 99.99     0.275 HD
ATOM     76  HZ2 LYS     1      36.794  30.521  34.461  1.00 99.99     0.275 HD
ATOM     77  HZ1 LYS     1      37.567  30.185  33.070  1.00 99.99     0.275 HD
ENDBRANCH  73  74
ENDBRANCH  72  73
ENDBRANCH  71  72
ENDBRANCH  70  71
ENDBRANCH   5  70
ENDBRANCH   1   5
TORSDOF 34
