REMARK WARNING: 32 MAX_TORS EXCEEDED!!!
REMARK  48 active torsions:
REMARK  status: ('A' for Active; 'I' for Inactive)
REMARK    1  A    between atoms: N_1  and  CA_2 
REMARK    2  A    between atoms: CA_2  and  C_3 
REMARK    3  A    between atoms: CA_2  and  CB_5 
REMARK       I    between atoms: C_3  and  N_20 
REMARK    4  A    between atoms: CB_5  and  CG_6 
REMARK    5  A    between atoms: CG_6  and  CD_7 
REMARK    6  A    between atoms: CD_7  and  NE_8 
REMARK       I    between atoms: NE_8  and  CZ_9 
REMARK       I    between atoms: CZ_9  and  NH2_11 
REMARK       I    between atoms: CZ_9  and  NH1_10 
REMARK    7  A    between atoms: N_20  and  CA_21 
REMARK    8  A    between atoms: CA_21  and  C_22 
REMARK    9  A    between atoms: CA_21  and  CB_24 
REMARK       I    between atoms: C_22  and  N_37 
REMARK   10  A    between atoms: CB_24  and  CG_25 
REMARK   11  A    between atoms: CG_25  and  CD_26 
REMARK   12  A    between atoms: CD_26  and  NE_27 
REMARK       I    between atoms: NE_27  and  CZ_28 
REMARK       I    between atoms: CZ_28  and  NH1_29 
REMARK       I    between atoms: CZ_28  and  NH2_30 
REMARK   13  A    between atoms: N_37  and  CA_38 
REMARK   14  A    between atoms: CA_38  and  C_39 
REMARK   15  A    between atoms: CA_38  and  CB_41 
REMARK       I    between atoms: C_39  and  N_54 
REMARK   16  A    between atoms: CB_41  and  CG_42 
REMARK   17  A    between atoms: CG_42  and  CD_43 
REMARK   18  A    between atoms: CD_43  and  NE_44 
REMARK       I    between atoms: NE_44  and  CZ_45 
REMARK       I    between atoms: CZ_45  and  NH1_46 
REMARK       I    between atoms: CZ_45  and  NH2_47 
REMARK   19  A    between atoms: N_54  and  CA_55 
REMARK   20  A    between atoms: CA_55  and  C_56 
REMARK   21  A    between atoms: CA_55  and  CB_58 
REMARK       I    between atoms: C_56  and  N_71 
REMARK   22  A    between atoms: CB_58  and  CG_59 
REMARK   23  A    between atoms: CG_59  and  CD_60 
REMARK   24  A    between atoms: CD_60  and  NE_61 
REMARK       I    between atoms: NE_61  and  CZ_62 
REMARK       I    between atoms: CZ_62  and  NH1_63 
REMARK       I    between atoms: CZ_62  and  NH2_64 
REMARK   25  A    between atoms: N_71  and  CA_72 
REMARK   26  A    between atoms: CA_72  and  C_73 
REMARK   27  A    between atoms: CA_72  and  CB_75 
REMARK       I    between atoms: C_73  and  N_88 
REMARK   28  A    between atoms: CB_75  and  CG_76 
REMARK   29  A    between atoms: CG_76  and  CD_77 
REMARK   30  A    between atoms: CD_77  and  NE_78 
REMARK       I    between atoms: NE_78  and  CZ_79 
REMARK       I    between atoms: CZ_79  and  NH1_80 
REMARK       I    between atoms: CZ_79  and  NH2_81 
REMARK   31  A    between atoms: N_88  and  CA_89 
REMARK   32  A    between atoms: CA_89  and  CB_92 
REMARK   33  A    between atoms: CA_89  and  C_90 
REMARK       I    between atoms: C_90  and  N_105 
REMARK   34  A    between atoms: CB_92  and  CG_93 
REMARK   35  A    between atoms: CG_93  and  CD_94 
REMARK   36  A    between atoms: CD_94  and  NE_95 
REMARK       I    between atoms: NE_95  and  CZ_96 
REMARK       I    between atoms: CZ_96  and  NH2_98 
REMARK       I    between atoms: CZ_96  and  NH1_97 
REMARK   37  A    between atoms: N_105  and  CA_106 
REMARK   38  A    between atoms: CA_106  and  C_107 
REMARK   39  A    between atoms: CA_106  and  CB_109 
REMARK       I    between atoms: C_107  and  N_122 
REMARK   40  A    between atoms: CB_109  and  CG_110 
REMARK   41  A    between atoms: CG_110  and  CD_111 
REMARK   42  A    between atoms: CD_111  and  NE_112 
REMARK       I    between atoms: NE_112  and  CZ_113 
REMARK       I    between atoms: CZ_113  and  NH2_115 
REMARK       I    between atoms: CZ_113  and  NH1_114 
REMARK   43  A    between atoms: N_122  and  CA_123 
REMARK   44  A    between atoms: CA_123  and  C_124 
REMARK   45  A    between atoms: CA_123  and  CB_126 
REMARK   46  A    between atoms: CB_126  and  CG_127 
REMARK   47  A    between atoms: CG_127  and  CD_128 
REMARK   48  A    between atoms: CD_128  and  NE_129 
REMARK       I    between atoms: NE_129  and  CZ_130 
REMARK       I    between atoms: CZ_130  and  NH1_131 
ROOT
ATOM      1  N   ARG     1      34.067  28.273  33.960  1.00  0.00    -0.058 N 
ATOM      2  H1  ARG     1      33.145  27.930  33.817  1.00 99.99     0.276 HD
ATOM      3  H2  ARG     1      34.676  27.532  34.182  1.00 99.99     0.276 HD
ATOM      4  H3  ARG     1      34.071  28.858  34.766  1.00 99.99     0.276 HD
ENDROOT
BRANCH   1   5
ATOM      5  CA  ARG     1      34.511  29.021  32.742  1.00  0.00     0.255 C 
BRANCH   5   6
ATOM      6  C   ARG     1      33.410  29.007  31.652  1.00  0.00     0.259 C 
ATOM      7  N   ARG     2      33.378  28.006  30.756  1.00  0.00    -0.338 N 
ATOM      8  H   ARG     2      34.084  27.296  30.764  1.00 99.99     0.164 HD
ATOM      9  O   ARG     1      32.486  29.808  31.786  1.00  0.00    -0.271 OA
BRANCH   7  10
ATOM     10  CA  ARG     2      32.392  27.834  29.653  1.00  0.00     0.159 C 
BRANCH  10  11
ATOM     11  C   ARG     2      31.061  28.613  29.752  1.00  0.00     0.251 C 
ATOM     12  N   ARG     3      30.223  28.287  30.748  1.00  0.00    -0.338 N 
ATOM     13  H   ARG     3      30.372  27.454  31.278  1.00 99.99     0.164 HD
ATOM     14  O   ARG     2      30.888  29.594  29.025  1.00  0.00    -0.271 OA
BRANCH  12  15
ATOM     15  CA  ARG     3      28.948  28.971  31.071  1.00  0.00     0.159 C 
BRANCH  15  16
ATOM     16  C   ARG     3      28.917  30.508  31.107  1.00  0.00     0.251 C 
ATOM     17  N   ARG     4      30.042  31.166  31.407  1.00  0.00    -0.338 N 
ATOM     18  H   ARG     4      30.883  30.684  31.681  1.00 99.99     0.164 HD
ATOM     19  O   ARG     3      27.834  31.091  31.013  1.00  0.00    -0.271 OA
BRANCH  17  20
ATOM     20  CA  ARG     4      30.137  32.630  31.295  1.00  0.00     0.159 C 
BRANCH  20  21
ATOM     21  C   ARG     4      30.210  33.095  29.839  1.00  0.00     0.251 C 
ATOM     22  O   ARG     4      29.197  33.588  29.331  1.00  0.00    -0.271 OA
ATOM     23  N   ARG     5      31.206  32.575  29.107  1.00  0.00    -0.338 N 
ATOM     24  H   ARG     5      31.825  31.914  29.530  1.00 99.99     0.164 HD
BRANCH  23  25
ATOM     25  CA  ARG     5      31.509  32.838  27.684  1.00  0.00     0.159 C 
BRANCH  25  26
ATOM     26  C   ARG     5      30.434  32.530  26.621  1.00  0.00     0.251 C 
ATOM     27  N   ARG     6      29.296  31.985  27.053  1.00  0.00    -0.338 N 
ATOM     28  H   ARG     6      29.224  31.660  27.995  1.00 99.99     0.164 HD
ATOM     29  O   ARG     5      30.695  32.639  25.417  1.00  0.00    -0.271 OA
BRANCH  27  30
ATOM     30  CA  ARG     6      28.100  31.742  26.223  1.00  0.00     0.159 C 
BRANCH  30  31
ATOM     31  CB  ARG     6      27.936  30.218  26.146  1.00  0.00     0.034 C 
BRANCH  31  32
ATOM     32  CG  ARG     6      27.035  29.784  24.985  1.00  0.00     0.027 C 
BRANCH  32  33
ATOM     33  CD  ARG     6      26.407  28.403  25.218  1.00  0.00     0.116 C 
BRANCH  33  34
ATOM     34  NE  ARG     6      25.510  28.372  26.394  1.00  0.00    -0.212 N 
ATOM     35  HE  ARG     6      25.864  27.858  27.170  1.00 99.99     0.178 HD
ATOM     36  CZ  ARG     6      24.328  28.985  26.553  1.00  0.00     0.666 C 
ATOM     37  NH2 ARG     6      23.589  28.718  27.622  1.00  0.00    -0.235 N 
ATOM     38  NH1 ARG     6      23.800  29.779  25.633  1.00  0.00    -0.235 N 
ATOM     39 1HH2 ARG     6      22.713  29.181  27.732  1.00 99.99     0.174 HD
ATOM     40 2HH2 ARG     6      23.899  28.056  28.299  1.00 99.99     0.174 HD
ATOM     41 2HH1 ARG     6      24.326  29.974  24.805  1.00 99.99     0.174 HD
ATOM     42 1HH1 ARG     6      22.931  30.237  25.793  1.00 99.99     0.174 HD
ENDBRANCH  33  34
ENDBRANCH  32  33
ENDBRANCH  31  32
ENDBRANCH  30  31
BRANCH  30  43
ATOM     43  C   ARG     6      26.834  32.435  26.801  1.00  0.00     0.251 C 
ATOM     44  N   ARG     7      27.057  33.517  27.543  1.00  0.00    -0.338 N 
ATOM     45  H   ARG     7      27.993  33.694  27.842  1.00 99.99     0.164 HD
ATOM     46  O   ARG     6      25.706  31.969  26.664  1.00  0.00    -0.271 OA
BRANCH  44  47
ATOM     47  CA  ARG     7      26.031  34.370  28.197  1.00  0.00     0.159 C 
BRANCH  47  48
ATOM     48  C   ARG     7      26.454  35.846  28.339  1.00  0.00     0.251 C 
ATOM     49  O   ARG     7      25.629  36.726  28.574  1.00  0.00    -0.271 OA
ATOM     50  N   ARG     8      27.775  36.015  28.416  1.00  0.00    -0.336 N 
ATOM     51  H   ARG     8      28.354  35.202  28.380  1.00 99.99     0.164 HD
BRANCH  50  52
ATOM     52  CA  ARG     8      28.577  37.248  28.577  1.00  0.00     0.168 C 
BRANCH  52  53
ATOM     53  C   ARG     8      30.018  36.863  28.201  1.00  0.00     0.206 C 
ATOM     54  OXT ARG     8      30.431  35.777  28.680  1.00 99.99    -0.646 OA
ATOM     55  O   ARG     8      30.617  37.565  27.355  1.00 99.99    -0.646 OA
ENDBRANCH  52  53
BRANCH  52  56
ATOM     56  CB  ARG     8      28.709  37.688  30.042  1.00  0.00     0.035 C 
BRANCH  56  57
ATOM     57  CG  ARG     8      27.454  38.001  30.853  1.00  0.00     0.027 C 
BRANCH  57  58
ATOM     58  CD  ARG     8      27.947  38.331  32.259  1.00  0.00     0.116 C 
BRANCH  58  59
ATOM     59  NE  ARG     8      26.843  38.459  33.226  1.00  0.00    -0.212 N 
ATOM     60  HE  ARG     8      25.925  38.374  32.850  1.00 99.99     0.178 HD
ATOM     61  CZ  ARG     8      26.997  38.661  34.538  1.00  0.00     0.666 C 
ATOM     62  NH2 ARG     8      25.948  38.605  35.341  1.00  0.00    -0.235 N 
ATOM     63  NH1 ARG     8      28.199  38.800  35.089  1.00  0.00    -0.235 N 
ATOM     64 2HH2 ARG     8      25.042  38.407  34.973  1.00 99.99     0.174 HD
ATOM     65 1HH2 ARG     8      26.071  38.751  36.322  1.00 99.99     0.174 HD
ATOM     66 1HH1 ARG     8      28.298  38.946  36.069  1.00 99.99     0.174 HD
ATOM     67 2HH1 ARG     8      29.003  38.755  34.497  1.00 99.99     0.174 HD
ENDBRANCH  58  59
ENDBRANCH  57  58
ENDBRANCH  56  57
ENDBRANCH  52  56
ENDBRANCH  50  52
ENDBRANCH  47  48
BRANCH  47  68
ATOM     68  CB  ARG     7      25.725  33.871  29.617  1.00  0.00     0.034 C 
BRANCH  68  69
ATOM     69  CG  ARG     7      24.767  32.683  29.703  1.00  0.00     0.027 C 
BRANCH  69  70
ATOM     70  CD  ARG     7      24.497  32.395  31.180  1.00  0.00     0.116 C 
BRANCH  70  71
ATOM     71  NE  ARG     7      23.499  31.325  31.337  1.00  0.00    -0.212 N 
ATOM     72  HE  ARG     7      23.104  30.988  30.485  1.00 99.99     0.178 HD
ATOM     73  CZ  ARG     7      23.061  30.831  32.501  1.00  0.00     0.666 C 
ATOM     74  NH2 ARG     7      22.270  29.769  32.527  1.00  0.00    -0.235 N 
ATOM     75  NH1 ARG     7      23.471  31.321  33.665  1.00  0.00    -0.235 N 
ATOM     76 2HH2 ARG     7      21.990  29.325  31.678  1.00 99.99     0.174 HD
ATOM     77 1HH2 ARG     7      21.960  29.411  33.406  1.00 99.99     0.174 HD
ATOM     78 1HH1 ARG     7      23.142  30.943  34.524  1.00 99.99     0.174 HD
ATOM     79 2HH1 ARG     7      24.116  32.086  33.657  1.00 99.99     0.174 HD
ENDBRANCH  70  71
ENDBRANCH  69  70
ENDBRANCH  68  69
ENDBRANCH  47  68
ENDBRANCH  44  47
ENDBRANCH  30  43
ENDBRANCH  27  30
ENDBRANCH  25  26
BRANCH  25  80
ATOM     80  CB  ARG     5      32.782  32.067  27.298  1.00  0.00     0.034 C 
BRANCH  80  81
ATOM     81  CG  ARG     5      34.084  32.703  27.777  1.00  0.00     0.027 C 
BRANCH  81  82
ATOM     82  CD  ARG     5      35.243  31.925  27.150  1.00  0.00     0.116 C 
BRANCH  82  83
ATOM     83  NE  ARG     5      36.545  32.506  27.517  1.00  0.00    -0.212 N 
ATOM     84  CZ  ARG     5      37.742  32.017  27.165  1.00  0.00     0.666 C 
ATOM     85  NH1 ARG     5      37.862  30.968  26.362  1.00  0.00    -0.235 N 
ATOM     86  NH2 ARG     5      38.844  32.480  27.733  1.00  0.00    -0.235 N 
ATOM     87 2HH1 ARG     5      37.032  30.550  25.989  1.00 99.99     0.174 HD
ATOM     88 1HH1 ARG     5      38.760  30.618  26.114  1.00 99.99     0.174 HD
ATOM     89 2HH2 ARG     5      38.798  33.195  28.429  1.00 99.99     0.174 HD
ATOM     90 1HH2 ARG     5      39.728  32.100  27.467  1.00 99.99     0.174 HD
ATOM     91  HE  ARG     5      36.507  33.374  28.004  1.00 99.99     0.178 HD
ENDBRANCH  82  83
ENDBRANCH  81  82
ENDBRANCH  80  81
ENDBRANCH  25  80
ENDBRANCH  23  25
ENDBRANCH  20  21
BRANCH  20  92
ATOM     92  CB  ARG     4      31.234  33.239  32.192  1.00  0.00     0.034 C 
BRANCH  92  93
ATOM     93  CG  ARG     4      30.793  33.145  33.657  1.00  0.00     0.027 C 
BRANCH  93  94
ATOM     94  CD  ARG     4      31.402  34.205  34.587  1.00  0.00     0.116 C 
BRANCH  94  95
ATOM     95  NE  ARG     4      32.822  33.958  34.885  1.00  0.00    -0.212 N 
ATOM     96  CZ  ARG     4      33.309  33.357  35.981  1.00  0.00     0.666 C 
ATOM     97  NH1 ARG     4      32.520  32.890  36.938  1.00  0.00    -0.235 N 
ATOM     98  NH2 ARG     4      34.618  33.220  36.143  1.00  0.00    -0.235 N 
ATOM     99 2HH1 ARG     4      31.528  33.001  36.842  1.00 99.99     0.174 HD
ATOM    100 1HH1 ARG     4      32.901  32.446  37.744  1.00 99.99     0.174 HD
ATOM    101 2HH2 ARG     4      35.255  33.577  35.462  1.00 99.99     0.174 HD
ATOM    102 1HH2 ARG     4      34.965  32.772  36.963  1.00 99.99     0.174 HD
ATOM    103  HE  ARG     4      33.466  34.345  34.229  1.00 99.99     0.178 HD
ENDBRANCH  94  95
ENDBRANCH  93  94
ENDBRANCH  92  93
ENDBRANCH  20  92
ENDBRANCH  17  20
ENDBRANCH  15  16
BRANCH  15 104
ATOM    104  CB  ARG     3      28.369  28.471  32.406  1.00  0.00     0.034 C 
BRANCH 104 105
ATOM    105  CG  ARG     3      27.909  27.012  32.355  1.00  0.00     0.027 C 
BRANCH 105 106
ATOM    106  CD  ARG     3      26.927  26.656  33.481  1.00  0.00     0.116 C 
BRANCH 106 107
ATOM    107  NE  ARG     3      27.516  26.789  34.828  1.00  0.00    -0.212 N 
ATOM    108  CZ  ARG     3      28.008  25.797  35.581  1.00  0.00     0.666 C 
ATOM    109  NH1 ARG     3      28.039  24.542  35.152  1.00  0.00    -0.235 N 
ATOM    110  NH2 ARG     3      28.447  26.038  36.808  1.00  0.00    -0.235 N 
ATOM    111 2HH1 ARG     3      27.666  24.334  34.247  1.00 99.99     0.174 HD
ATOM    112 1HH1 ARG     3      28.410  23.817  35.725  1.00 99.99     0.174 HD
ATOM    113 1HH2 ARG     3      28.810  25.287  37.355  1.00 99.99     0.174 HD
ATOM    114 2HH2 ARG     3      28.396  26.957  37.198  1.00 99.99     0.174 HD
ATOM    115  HE  ARG     3      27.471  27.706  35.220  1.00 99.99     0.178 HD
ENDBRANCH 106 107
ENDBRANCH 105 106
ENDBRANCH 104 105
ENDBRANCH  15 104
ENDBRANCH  12  15
ENDBRANCH  10  11
BRANCH  10 116
ATOM    116  CB  ARG     2      32.153  26.342  29.341  1.00  0.00     0.034 C 
BRANCH 116 117
ATOM    117  CG  ARG     2      33.357  25.648  28.684  1.00  0.00     0.027 C 
BRANCH 117 118
ATOM    118  CD  ARG     2      33.062  24.171  28.374  1.00  0.00     0.116 C 
BRANCH 118 119
ATOM    119  NE  ARG     2      34.242  23.481  27.824  1.00  0.00    -0.212 N 
ATOM    120  CZ  ARG     2      34.383  22.162  27.625  1.00  0.00     0.666 C 
ATOM    121  NH1 ARG     2      33.403  21.298  27.865  1.00  0.00    -0.235 N 
ATOM    122  NH2 ARG     2      35.560  21.651  27.284  1.00  0.00    -0.235 N 
ATOM    123 2HH1 ARG     2      32.519  21.640  28.182  1.00 99.99     0.174 HD
ATOM    124 1HH1 ARG     2      33.541  20.323  27.715  1.00 99.99     0.174 HD
ATOM    125 1HH2 ARG     2      35.648  20.666  27.152  1.00 99.99     0.174 HD
ATOM    126 2HH2 ARG     2      36.358  22.239  27.162  1.00 99.99     0.174 HD
ATOM    127  HE  ARG     2      34.985  24.075  27.515  1.00 99.99     0.178 HD
ENDBRANCH 118 119
ENDBRANCH 117 118
ENDBRANCH 116 117
ENDBRANCH  10 116
ENDBRANCH   7  10
ENDBRANCH   5   6
BRANCH   5 128
ATOM    128  CB  ARG     1      35.903  28.561  32.278  1.00  0.00     0.042 C 
BRANCH 128 129
ATOM    129  CG  ARG     1      36.600  29.611  31.393  1.00  0.00     0.027 C 
BRANCH 129 130
ATOM    130  CD  ARG     1      38.132  29.475  31.366  1.00  0.00     0.116 C 
BRANCH 130 131
ATOM    131  NE  ARG     1      38.580  28.286  30.621  1.00  0.00    -0.212 N 
ATOM    132  CZ  ARG     1      39.806  27.745  30.630  1.00  0.00     0.666 C 
ATOM    133  NH2 ARG     1      40.045  26.638  29.940  1.00  0.00    -0.235 N 
ATOM    134  NH1 ARG     1      40.808  28.250  31.339  1.00  0.00    -0.235 N 
ATOM    135 1HH2 ARG     1      40.957  26.236  29.956  1.00 99.99     0.174 HD
ATOM    136 2HH2 ARG     1      39.321  26.208  29.402  1.00 99.99     0.174 HD
ATOM    137 1HH1 ARG     1      41.705  27.816  31.327  1.00 99.99     0.174 HD
ATOM    138 2HH1 ARG     1      40.655  29.076  31.882  1.00 99.99     0.174 HD
ATOM    139  HE  ARG     1      37.902  27.892  30.006  1.00 99.99     0.178 HD
ENDBRANCH 130 131
ENDBRANCH 129 130
ENDBRANCH 128 129
ENDBRANCH   5 128
ENDBRANCH   1   5
TORSDOF 48
