REMARK WARNING: 32 MAX_TORS EXCEEDED!!!
REMARK  33 active torsions:
REMARK  status: ('A' for Active; 'I' for Inactive)
REMARK    1  A    between atoms: N_1  and  CA_2 
REMARK    2  A    between atoms: CA_2  and  C_3 
REMARK    3  A    between atoms: CA_2  and  CB_5 
REMARK       I    between atoms: C_3  and  N_16 
REMARK    4  A    between atoms: CB_5  and  CG_6 
REMARK    5  A    between atoms: CG_6  and  CD_7 
REMARK    6  A    between atoms: CD_7  and  CE_8 
REMARK    7  A    between atoms: CE_8  and  NZ_9 
REMARK    8  A    between atoms: N_16  and  CA_17 
REMARK    9  A    between atoms: CA_17  and  C_18 
REMARK   10  A    between atoms: CA_17  and  CB_20 
REMARK       I    between atoms: C_18  and  N_29 
REMARK   11  A    between atoms: CB_20  and  CG_21 
REMARK   12  A    between atoms: CG_21  and  CD_22 
REMARK   13  A    between atoms: CD_22  and  CE_23 
REMARK   14  A    between atoms: CE_23  and  NZ_24 
REMARK   15  A    between atoms: N_29  and  CA_30 
REMARK   16  A    between atoms: CA_30  and  C_31 
REMARK   17  A    between atoms: CA_30  and  CB_33 
REMARK       I    between atoms: C_31  and  N_38 
REMARK   18  A    between atoms: CB_33  and  CG_34 
REMARK   19  A    between atoms: N_38  and  CA_39 
REMARK   20  A    between atoms: CA_39  and  CB_42 
REMARK   21  A    between atoms: CA_39  and  C_40 
REMARK       I    between atoms: C_40  and  N_51 
REMARK   22  A    between atoms: CB_42  and  CG_43 
REMARK   23  A    between atoms: CG_43  and  CD_44 
REMARK   24  A    between atoms: CD_44  and  CE_45 
REMARK   25  A    between atoms: CE_45  and  NZ_46 
REMARK   26  A    between atoms: N_51  and  CA_52 
REMARK   27  A    between atoms: CA_52  and  C_53 
REMARK       I    between atoms: C_53  and  N_57 
REMARK   28  A    between atoms: N_57  and  CA_58 
REMARK   29  A    between atoms: CA_58  and  C_59 
REMARK   30  A    between atoms: CA_58  and  CB_61 
REMARK       I    between atoms: C_59  and  N_69 
REMARK   31  A    between atoms: CB_61  and  CG_62 
REMARK   32  A    between atoms: N_69  and  CA_70 
REMARK   33  A    between atoms: CA_70  and  C_71 
ROOT
ATOM      1  N   LYS     1      28.087  25.719  33.698  1.00  0.00    -0.058 N 
ATOM      2  H1  LYS     1      28.791  26.418  33.599  1.00 99.99     0.276 HD
ATOM      3  H2  LYS     1      27.685  25.778  34.589  1.00 99.99     0.276 HD
ATOM      4  H3  LYS     1      28.525  24.830  33.661  1.00 99.99     0.276 HD
ENDROOT
BRANCH   1   5
ATOM      5  CA  LYS     1      27.096  25.884  32.598  1.00  0.00     0.255 C 
BRANCH   5   6
ATOM      6  C   LYS     1      27.535  27.101  31.752  1.00  0.00     0.259 C 
ATOM      7  N   LYS     2      27.096  28.322  32.098  1.00  0.00    -0.338 N 
ATOM      8  H   LYS     2      26.495  28.439  32.889  1.00 99.99     0.164 HD
ATOM      9  O   LYS     1      28.545  26.934  31.070  1.00  0.00    -0.271 OA
BRANCH   7  10
ATOM     10  CA  LYS     2      27.368  29.595  31.375  1.00  0.00     0.159 C 
BRANCH  10  11
ATOM     11  C   LYS     2      28.508  29.578  30.328  1.00  0.00     0.251 C 
ATOM     12  O   LYS     2      28.215  29.588  29.137  1.00  0.00    -0.271 OA
ATOM     13  N   LEU     3      29.768  29.489  30.777  1.00  0.00    -0.338 N 
ATOM     14  H   LEU     3      29.974  29.565  31.753  1.00 99.99     0.164 HD
BRANCH  13  15
ATOM     15  CA  LEU     3      30.965  29.347  29.920  1.00  0.00     0.159 C 
BRANCH  15  16
ATOM     16  C   LEU     3      30.736  28.469  28.670  1.00  0.00     0.251 C 
ATOM     17  N   LYS     4      30.368  27.203  28.897  1.00  0.00    -0.338 N 
ATOM     18  H   LYS     4      30.196  26.894  29.836  1.00 99.99     0.164 HD
ATOM     19  O   LEU     3      30.575  29.032  27.589  1.00  0.00    -0.271 OA
BRANCH  17  20
ATOM     20  CA  LYS     4      30.081  26.167  27.879  1.00  0.00     0.159 C 
BRANCH  20  21
ATOM     21  CB  LYS     4      29.904  24.811  28.581  1.00  0.00     0.032 C 
BRANCH  21  22
ATOM     22  CG  LYS     4      31.198  24.156  29.062  1.00  0.00     0.004 C 
BRANCH  22  23
ATOM     23  CD  LYS     4      30.896  22.701  29.432  1.00  0.00     0.032 C 
BRANCH  23  24
ATOM     24  CE  LYS     4      32.156  21.930  29.824  1.00  0.00     0.206 C 
BRANCH  24  25
ATOM     25  NZ  LYS     4      31.861  20.495  29.975  1.00  0.00    -0.064 N 
ATOM     26  HZ3 LYS     4      31.526  20.135  29.104  1.00 99.99     0.275 HD
ATOM     27  HZ2 LYS     4      31.164  20.363  30.678  1.00 99.99     0.275 HD
ATOM     28  HZ1 LYS     4      32.695  20.008  30.233  1.00 99.99     0.275 HD
ENDBRANCH  24  25
ENDBRANCH  23  24
ENDBRANCH  22  23
ENDBRANCH  21  22
ENDBRANCH  20  21
BRANCH  20  29
ATOM     29  C   LYS     4      28.859  26.383  26.953  1.00  0.00     0.251 C 
ATOM     30  O   LYS     4      28.402  25.461  26.281  1.00  0.00    -0.271 OA
ATOM     31  N   ALA     5      28.245  27.566  27.042  1.00  0.00    -0.338 N 
ATOM     32  H   ALA     5      28.478  28.199  27.785  1.00 99.99     0.164 HD
BRANCH  31  33
ATOM     33  CA  ALA     5      27.159  28.034  26.164  1.00  0.00     0.159 C 
ATOM     34  CB  ALA     5      25.871  28.059  26.998  1.00  0.00     0.034 C 
BRANCH  33  35
ATOM     35  C   ALA     5      27.422  29.422  25.530  1.00  0.00     0.251 C 
ATOM     36  N   PHE     6      28.643  29.927  25.769  1.00  0.00    -0.337 N 
ATOM     37  H   PHE     6      29.244  29.464  26.420  1.00 99.99     0.164 HD
ATOM     38  O   ALA     5      26.556  30.035  24.926  1.00  0.00    -0.271 OA
BRANCH  36  39
ATOM     39  CA  PHE     6      29.168  31.207  25.276  1.00  0.00     0.164 C 
BRANCH  39  40
ATOM     40  C   PHE     6      30.536  31.045  24.572  1.00  0.00     0.251 C 
ATOM     41  N   ALA     7      31.315  30.067  25.073  1.00  0.00    -0.336 N 
ATOM     42  H   ALA     7      31.012  29.559  25.874  1.00 99.99     0.164 HD
ATOM     43  O   PHE     6      30.883  31.792  23.672  1.00  0.00    -0.271 OA
BRANCH  41  44
ATOM     44  CA  ALA     7      32.655  29.672  24.588  1.00  0.00     0.168 C 
ATOM     45  CB  ALA     7      33.707  30.680  25.069  1.00  0.00     0.036 C 
BRANCH  44  46
ATOM     46  C   ALA     7      33.029  28.284  25.147  1.00  0.00     0.206 C 
ATOM     47  OXT ALA     7      32.800  28.095  26.363  1.00 99.99    -0.646 OA
ATOM     48  O   ALA     7      33.384  27.405  24.331  1.00 99.99    -0.646 OA
ENDBRANCH  44  46
ENDBRANCH  41  44
ENDBRANCH  39  40
BRANCH  39  49
ATOM     49  CB  PHE     6      29.266  32.134  26.496  1.00  0.00     0.056 C 
BRANCH  49  50
ATOM     50  CG  PHE     6      29.754  33.553  26.159  1.00  0.00    -0.044 A 
ATOM     51  CD1 PHE     6      28.852  34.513  25.744  1.00  0.00     0.008 A 
ATOM     52  CE1 PHE     6      29.291  35.791  25.430  1.00  0.00     0.001 A 
ATOM     53  CZ  PHE     6      30.649  36.110  25.543  1.00  0.00     0.000 A 
ATOM     54  CE2 PHE     6      31.553  35.129  25.968  1.00  0.00     0.001 A 
ATOM     55  CD2 PHE     6      31.096  33.856  26.276  1.00  0.00     0.008 A 
ENDBRANCH  49  50
ENDBRANCH  39  49
ENDBRANCH  36  39
ENDBRANCH  33  35
ENDBRANCH  31  33
ENDBRANCH  20  29
ENDBRANCH  17  20
ENDBRANCH  15  16
BRANCH  15  56
ATOM     56  CB  LEU     3      32.130  28.824  30.780  1.00  0.00     0.032 C 
BRANCH  56  57
ATOM     57  CG  LEU     3      33.503  28.870  30.094  1.00  0.00     0.002 C 
ATOM     58  CD2 LEU     3      34.539  28.150  30.960  1.00  0.00     0.000 C 
ATOM     59  CD1 LEU     3      33.954  30.310  29.822  1.00  0.00     0.000 C 
ENDBRANCH  56  57
ENDBRANCH  15  56
ENDBRANCH  13  15
ENDBRANCH  10  11
BRANCH  10  60
ATOM     60  CB  LYS     2      27.487  30.786  32.342  1.00  0.00     0.032 C 
BRANCH  60  61
ATOM     61  CG  LYS     2      27.362  32.120  31.588  1.00  0.00     0.004 C 
BRANCH  61  62
ATOM     62  CD  LYS     2      27.390  33.352  32.496  1.00  0.00     0.032 C 
BRANCH  62  63
ATOM     63  CE  LYS     2      27.260  34.625  31.653  1.00  0.00     0.206 C 
BRANCH  63  64
ATOM     64  NZ  LYS     2      27.252  35.846  32.475  1.00  0.00    -0.064 N 
ATOM     65  HZ1 LYS     2      27.172  36.646  31.877  1.00 99.99     0.275 HD
ATOM     66  HZ2 LYS     2      26.473  35.827  33.101  1.00 99.99     0.275 HD
ATOM     67  HZ3 LYS     2      28.102  35.910  32.996  1.00 99.99     0.275 HD
ENDBRANCH  63  64
ENDBRANCH  62  63
ENDBRANCH  61  62
ENDBRANCH  60  61
ENDBRANCH  10  60
ENDBRANCH   7  10
ENDBRANCH   5   6
BRANCH   5  68
ATOM     68  CB  LYS     1      25.636  25.913  33.096  1.00  0.00     0.040 C 
BRANCH  68  69
ATOM     69  CG  LYS     1      24.631  25.580  31.974  1.00  0.00     0.004 C 
BRANCH  69  70
ATOM     70  CD  LYS     1      23.198  25.317  32.465  1.00  0.00     0.032 C 
BRANCH  70  71
ATOM     71  CE  LYS     1      22.269  24.927  31.304  1.00  0.00     0.206 C 
BRANCH  71  72
ATOM     72  NZ  LYS     1      20.900  24.582  31.730  1.00  0.00    -0.064 N 
ATOM     73  HZ1 LYS     1      20.350  24.346  30.925  1.00 99.99     0.275 HD
ATOM     74  HZ2 LYS     1      20.919  23.794  32.345  1.00 99.99     0.275 HD
ATOM     75  HZ3 LYS     1      20.474  25.358  32.194  1.00 99.99     0.275 HD
ENDBRANCH  71  72
ENDBRANCH  70  71
ENDBRANCH  69  70
ENDBRANCH  68  69
ENDBRANCH   5  68
ENDBRANCH   1   5
TORSDOF 33
