REMARK WARNING: 32 MAX_TORS EXCEEDED!!!
REMARK  33 active torsions:
REMARK  status: ('A' for Active; 'I' for Inactive)
REMARK    1  A    between atoms: N_1  and  CA_2 
REMARK    2  A    between atoms: CA_2  and  C_3 
REMARK       I    between atoms: C_3  and  N_9 
REMARK    3  A    between atoms: N_9  and  CA_10 
REMARK    4  A    between atoms: CA_10  and  C_11 
REMARK    5  A    between atoms: CA_10  and  CB_13 
REMARK       I    between atoms: C_11  and  N_21 
REMARK    6  A    between atoms: CB_13  and  CG_14 
REMARK    7  A    between atoms: N_21  and  CA_22 
REMARK    8  A    between atoms: CA_22  and  C_23 
REMARK       I    between atoms: C_23  and  N_27 
REMARK    9  A    between atoms: N_27  and  CA_28 
REMARK   10  A    between atoms: CA_28  and  C_29 
REMARK   11  A    between atoms: CA_28  and  CB_31 
REMARK       I    between atoms: C_29  and  N_36 
REMARK   12  A    between atoms: CB_31  and  CG_32 
REMARK   13  A    between atoms: N_36  and  CA_37 
REMARK   14  A    between atoms: CA_37  and  C_38 
REMARK   15  A    between atoms: CA_37  and  CB_40 
REMARK       I    between atoms: C_38  and  N_49 
REMARK   16  A    between atoms: CB_40  and  CG_41 
REMARK   17  A    between atoms: CG_41  and  CD_42 
REMARK   18  A    between atoms: CD_42  and  CE_43 
REMARK   19  A    between atoms: CE_43  and  NZ_44 
REMARK   20  A    between atoms: N_49  and  CA_50 
REMARK   21  A    between atoms: CA_50  and  CB_53 
REMARK   22  A    between atoms: CA_50  and  C_51 
REMARK       I    between atoms: C_51  and  N_62 
REMARK   23  A    between atoms: CB_53  and  CG_54 
REMARK   24  A    between atoms: CG_54  and  CD_55 
REMARK   25  A    between atoms: CD_55  and  CE_56 
REMARK   26  A    between atoms: CE_56  and  NZ_57 
REMARK   27  A    between atoms: N_62  and  CA_63 
REMARK   28  A    between atoms: CA_63  and  C_64 
REMARK   29  A    between atoms: CA_63  and  CB_66 
REMARK   30  A    between atoms: CB_66  and  CG_67 
REMARK   31  A    between atoms: CG_67  and  CD_68 
REMARK   32  A    between atoms: CD_68  and  CE_69 
REMARK   33  A    between atoms: CE_69  and  NZ_70 
ROOT
ATOM      1  N   ALA     1      29.853  32.272  33.990  1.00  0.00    -0.058 N 
ATOM      2  H1  ALA     1      30.242  32.289  33.071  1.00 99.99     0.276 HD
ATOM      3  H2  ALA     1      29.610  33.186  34.276  1.00 99.99     0.276 HD
ATOM      4  H3  ALA     1      30.557  31.986  34.634  1.00 99.99     0.276 HD
ENDROOT
BRANCH   1   5
ATOM      5  CA  ALA     1      28.686  31.358  34.019  1.00  0.00     0.255 C 
ATOM      6  CB  ALA     1      27.461  32.065  34.624  1.00  0.00     0.042 C 
BRANCH   5   7
ATOM      7  C   ALA     1      28.391  30.683  32.654  1.00  0.00     0.259 C 
ATOM      8  N   PHE     2      27.602  31.324  31.779  1.00  0.00    -0.337 N 
ATOM      9  H   PHE     2      27.191  32.209  31.994  1.00 99.99     0.164 HD
ATOM     10  O   ALA     1      29.118  29.755  32.303  1.00  0.00    -0.271 OA
BRANCH   8  11
ATOM     11  CA  PHE     2      27.136  30.743  30.496  1.00  0.00     0.164 C 
BRANCH  11  12
ATOM     12  C   PHE     2      28.212  30.088  29.604  1.00  0.00     0.251 C 
ATOM     13  O   PHE     2      28.024  28.949  29.187  1.00  0.00    -0.271 OA
ATOM     14  N   ALA     3      29.358  30.755  29.426  1.00  0.00    -0.338 N 
ATOM     15  H   ALA     3      29.439  31.716  29.673  1.00 99.99     0.164 HD
BRANCH  14  16
ATOM     16  CA  ALA     3      30.529  30.207  28.701  1.00  0.00     0.159 C 
ATOM     17  CB  ALA     3      31.726  31.149  28.887  1.00  0.00     0.034 C 
BRANCH  16  18
ATOM     18  C   ALA     3      30.874  28.764  29.129  1.00  0.00     0.251 C 
ATOM     19  O   ALA     3      30.526  27.834  28.408  1.00  0.00    -0.271 OA
ATOM     20  N   LEU     4      31.243  28.613  30.402  1.00  0.00    -0.338 N 
ATOM     21  H   LEU     4      31.398  29.417  30.970  1.00 99.99     0.164 HD
BRANCH  20  22
ATOM     22  CA  LEU     4      31.567  27.350  31.108  1.00  0.00     0.159 C 
BRANCH  22  23
ATOM     23  C   LEU     4      30.491  26.241  31.109  1.00  0.00     0.251 C 
ATOM     24  N   LYS     5      29.279  26.586  30.678  1.00  0.00    -0.338 N 
ATOM     25  H   LYS     5      29.051  27.538  30.476  1.00 99.99     0.164 HD
ATOM     26  O   LEU     4      30.724  25.162  31.649  1.00  0.00    -0.271 OA
BRANCH  24  27
ATOM     27  CA  LYS     5      28.152  25.643  30.514  1.00  0.00     0.159 C 
BRANCH  27  28
ATOM     28  C   LYS     5      27.857  25.226  29.056  1.00  0.00     0.251 C 
ATOM     29  O   LYS     5      26.971  24.410  28.812  1.00  0.00    -0.271 OA
ATOM     30  N   LYS     6      28.520  25.885  28.105  1.00  0.00    -0.338 N 
ATOM     31  H   LYS     6      29.147  26.627  28.348  1.00 99.99     0.164 HD
BRANCH  30  32
ATOM     32  CA  LYS     6      28.334  25.676  26.651  1.00  0.00     0.159 C 
BRANCH  32  33
ATOM     33  CB  LYS     6      27.651  26.928  26.086  1.00  0.00     0.032 C 
BRANCH  33  34
ATOM     34  CG  LYS     6      27.098  26.674  24.682  1.00  0.00     0.004 C 
BRANCH  34  35
ATOM     35  CD  LYS     6      26.542  27.936  24.025  1.00  0.00     0.032 C 
BRANCH  35  36
ATOM     36  CE  LYS     6      26.123  27.593  22.595  1.00  0.00     0.206 C 
BRANCH  36  37
ATOM     37  NZ  LYS     6      25.516  28.741  21.910  1.00  0.00    -0.064 N 
ATOM     38  HZ1 LYS     6      25.266  28.468  20.981  1.00 99.99     0.275 HD
ATOM     39  HZ2 LYS     6      24.698  29.025  22.407  1.00 99.99     0.275 HD
ATOM     40  HZ3 LYS     6      26.173  29.493  21.873  1.00 99.99     0.275 HD
ENDBRANCH  36  37
ENDBRANCH  35  36
ENDBRANCH  34  35
ENDBRANCH  33  34
ENDBRANCH  32  33
BRANCH  32  41
ATOM     41  C   LYS     6      29.646  25.374  25.888  1.00  0.00     0.251 C 
ATOM     42  N   LYS     7      30.739  25.933  26.402  1.00  0.00    -0.336 N 
ATOM     43  H   LYS     7      30.677  26.505  27.223  1.00 99.99     0.164 HD
ATOM     44  O   LYS     6      29.634  24.821  24.791  1.00  0.00    -0.271 OA
BRANCH  42  45
ATOM     45  CA  LYS     7      32.123  25.770  25.905  1.00  0.00     0.168 C 
BRANCH  45  46
ATOM     46  C   LYS     7      33.056  25.603  27.115  1.00  0.00     0.206 C 
ATOM     47  O   LYS     7      33.882  24.666  27.109  1.00 99.99    -0.646 OA
ATOM     48  OXT LYS     7      32.898  26.449  28.027  1.00 99.99    -0.646 OA
ENDBRANCH  45  46
BRANCH  45  49
ATOM     49  CB  LYS     7      32.608  27.041  25.201  1.00  0.00     0.033 C 
BRANCH  49  50
ATOM     50  CG  LYS     7      31.848  27.505  23.960  1.00  0.00     0.004 C 
BRANCH  50  51
ATOM     51  CD  LYS     7      32.590  28.747  23.468  1.00  0.00     0.032 C 
BRANCH  51  52
ATOM     52  CE  LYS     7      32.035  29.331  22.172  1.00  0.00     0.206 C 
BRANCH  52  53
ATOM     53  NZ  LYS     7      32.932  30.410  21.737  1.00  0.00    -0.064 N 
ATOM     54  HZ1 LYS     7      32.592  30.811  20.887  1.00 99.99     0.275 HD
ATOM     55  HZ2 LYS     7      32.981  31.110  22.448  1.00 99.99     0.275 HD
ATOM     56  HZ3 LYS     7      33.845  30.030  21.585  1.00 99.99     0.275 HD
ENDBRANCH  52  53
ENDBRANCH  51  52
ENDBRANCH  50  51
ENDBRANCH  49  50
ENDBRANCH  45  49
ENDBRANCH  42  45
ENDBRANCH  32  41
ENDBRANCH  30  32
ENDBRANCH  27  28
BRANCH  27  57
ATOM     57  CB  LYS     5      26.878  26.254  31.109  1.00  0.00     0.032 C 
BRANCH  57  58
ATOM     58  CG  LYS     5      26.872  26.298  32.637  1.00  0.00     0.004 C 
BRANCH  58  59
ATOM     59  CD  LYS     5      25.469  26.680  33.112  1.00  0.00     0.032 C 
BRANCH  59  60
ATOM     60  CE  LYS     5      25.335  26.584  34.632  1.00  0.00     0.206 C 
BRANCH  60  61
ATOM     61  NZ  LYS     5      23.933  26.767  35.034  1.00  0.00    -0.064 N 
ATOM     62  HZ3 LYS     5      23.374  26.054  34.608  1.00 99.99     0.275 HD
ATOM     63  HZ2 LYS     5      23.610  27.664  34.735  1.00 99.99     0.275 HD
ATOM     64  HZ1 LYS     5      23.857  26.694  36.028  1.00 99.99     0.275 HD
ENDBRANCH  60  61
ENDBRANCH  59  60
ENDBRANCH  58  59
ENDBRANCH  57  58
ENDBRANCH  27  57
ENDBRANCH  24  27
ENDBRANCH  22  23
BRANCH  22  65
ATOM     65  CB  LEU     4      31.899  27.690  32.568  1.00  0.00     0.032 C 
BRANCH  65  66
ATOM     66  CG  LEU     4      33.085  28.643  32.761  1.00  0.00     0.002 C 
ATOM     67  CD2 LEU     4      34.410  27.979  32.374  1.00  0.00     0.000 C 
ATOM     68  CD1 LEU     4      33.136  29.085  34.224  1.00  0.00     0.000 C 
ENDBRANCH  65  66
ENDBRANCH  22  65
ENDBRANCH  20  22
ENDBRANCH  16  18
ENDBRANCH  14  16
ENDBRANCH  11  12
BRANCH  11  69
ATOM     69  CB  PHE     2      26.341  31.809  29.732  1.00  0.00     0.056 C 
BRANCH  69  70
ATOM     70  CG  PHE     2      25.740  31.285  28.424  1.00  0.00    -0.044 A 
ATOM     71  CD1 PHE     2      24.581  30.517  28.444  1.00  0.00     0.008 A 
ATOM     72  CE1 PHE     2      23.977  30.141  27.250  1.00  0.00     0.001 A 
ATOM     73  CZ  PHE     2      24.527  30.538  26.037  1.00  0.00     0.000 A 
ATOM     74  CE2 PHE     2      25.694  31.292  26.018  1.00  0.00     0.001 A 
ATOM     75  CD2 PHE     2      26.301  31.663  27.211  1.00  0.00     0.008 A 
ENDBRANCH  69  70
ENDBRANCH  11  69
ENDBRANCH   8  11
ENDBRANCH   5   7
ENDBRANCH   1   5
TORSDOF 33
