REMARK WARNING: 32 MAX_TORS EXCEEDED!!!
REMARK  33 active torsions:
REMARK  status: ('A' for Active; 'I' for Inactive)
REMARK    1  A    between atoms: N_1  and  CA_2 
REMARK    2  A    between atoms: CA_2  and  C_3 
REMARK       I    between atoms: C_3  and  N_9 
REMARK    3  A    between atoms: N_9  and  CA_10 
REMARK    4  A    between atoms: CA_10  and  C_11 
REMARK    5  A    between atoms: CA_10  and  CB_13 
REMARK       I    between atoms: C_11  and  N_21 
REMARK    6  A    between atoms: CB_13  and  CG_14 
REMARK    7  A    between atoms: N_21  and  CA_22 
REMARK    8  A    between atoms: CA_22  and  C_23 
REMARK       I    between atoms: C_23  and  N_27 
REMARK    9  A    between atoms: N_27  and  CA_28 
REMARK   10  A    between atoms: CA_28  and  C_29 
REMARK   11  A    between atoms: CA_28  and  CB_31 
REMARK       I    between atoms: C_29  and  N_40 
REMARK   12  A    between atoms: CB_31  and  CG_32 
REMARK   13  A    between atoms: CG_32  and  CD_33 
REMARK   14  A    between atoms: CD_33  and  CE_34 
REMARK   15  A    between atoms: CE_34  and  NZ_35 
REMARK   16  A    between atoms: N_40  and  CA_41 
REMARK   17  A    between atoms: CA_41  and  CB_44 
REMARK   18  A    between atoms: CA_41  and  C_42 
REMARK       I    between atoms: C_42  and  N_49 
REMARK   19  A    between atoms: CB_44  and  CG_45 
REMARK   20  A    between atoms: N_49  and  CA_50 
REMARK   21  A    between atoms: CA_50  and  C_51 
REMARK   22  A    between atoms: CA_50  and  CB_53 
REMARK       I    between atoms: C_51  and  N_62 
REMARK   23  A    between atoms: CB_53  and  CG_54 
REMARK   24  A    between atoms: CG_54  and  CD_55 
REMARK   25  A    between atoms: CD_55  and  CE_56 
REMARK   26  A    between atoms: CE_56  and  NZ_57 
REMARK   27  A    between atoms: N_62  and  CA_63 
REMARK   28  A    between atoms: CA_63  and  CB_66 
REMARK   29  A    between atoms: CA_63  and  C_64 
REMARK   30  A    between atoms: CB_66  and  CG_67 
REMARK   31  A    between atoms: CG_67  and  CD_68 
REMARK   32  A    between atoms: CD_68  and  CE_69 
REMARK   33  A    between atoms: CE_69  and  NZ_70 
ROOT
ATOM      1  N   ALA     1      26.691  31.488  34.686  1.00  0.00    -0.058 N 
ATOM      2  H1  ALA     1      27.651  31.750  34.590  1.00 99.99     0.276 HD
ATOM      3  H2  ALA     1      26.139  32.316  34.788  1.00 99.99     0.276 HD
ATOM      4  H3  ALA     1      26.544  31.000  35.543  1.00 99.99     0.276 HD
ENDROOT
BRANCH   1   5
ATOM      5  CA  ALA     1      26.242  30.680  33.520  1.00  0.00     0.255 C 
ATOM      6  CB  ALA     1      25.004  31.365  32.921  1.00  0.00     0.042 C 
BRANCH   5   7
ATOM      7  C   ALA     1      27.279  30.357  32.403  1.00  0.00     0.259 C 
ATOM      8  O   ALA     1      26.905  30.031  31.274  1.00  0.00    -0.271 OA
ATOM      9  N   PHE     2      28.542  30.140  32.788  1.00  0.00    -0.337 N 
ATOM     10  H   PHE     2      28.774  29.976  33.744  1.00 99.99     0.164 HD
BRANCH   9  11
ATOM     11  CA  PHE     2      29.700  30.066  31.859  1.00  0.00     0.164 C 
BRANCH  11  12
ATOM     12  C   PHE     2      29.510  29.194  30.594  1.00  0.00     0.251 C 
ATOM     13  N   ALA     3      29.109  27.937  30.795  1.00  0.00    -0.338 N 
ATOM     14  H   ALA     3      29.069  27.551  31.713  1.00 99.99     0.164 HD
ATOM     15  O   PHE     2      29.521  29.718  29.481  1.00  0.00    -0.271 OA
BRANCH  13  16
ATOM     16  CA  ALA     3      28.814  26.961  29.720  1.00  0.00     0.159 C 
ATOM     17  CB  ALA     3      28.446  25.624  30.366  1.00  0.00     0.034 C 
BRANCH  16  18
ATOM     18  C   ALA     3      27.735  27.358  28.686  1.00  0.00     0.251 C 
ATOM     19  O   ALA     3      27.705  26.803  27.591  1.00  0.00    -0.271 OA
ATOM     20  N   LYS     4      26.846  28.284  29.050  1.00  0.00    -0.338 N 
ATOM     21  H   LYS     4      26.842  28.672  29.974  1.00 99.99     0.164 HD
BRANCH  20  22
ATOM     22  CA  LYS     4      25.790  28.840  28.170  1.00  0.00     0.159 C 
BRANCH  22  23
ATOM     23  C   LYS     4      26.163  30.164  27.465  1.00  0.00     0.251 C 
ATOM     24  N   LEU     5      27.351  30.667  27.788  1.00  0.00    -0.338 N 
ATOM     25  H   LEU     5      27.856  30.313  28.575  1.00 99.99     0.164 HD
ATOM     26  O   LYS     4      25.326  30.796  26.824  1.00  0.00    -0.271 OA
BRANCH  24  27
ATOM     27  CA  LEU     5      27.964  31.863  27.171  1.00  0.00     0.159 C 
BRANCH  27  28
ATOM     28  CB  LEU     5      28.453  32.812  28.272  1.00  0.00     0.032 C 
BRANCH  28  29
ATOM     29  CG  LEU     5      27.343  33.388  29.159  1.00  0.00     0.002 C 
ATOM     30  CD2 LEU     5      26.490  34.407  28.397  1.00  0.00     0.000 C 
ATOM     31  CD1 LEU     5      27.978  34.061  30.377  1.00  0.00     0.000 C 
ENDBRANCH  28  29
ENDBRANCH  27  28
BRANCH  27  32
ATOM     32  C   LEU     5      29.159  31.509  26.265  1.00  0.00     0.251 C 
ATOM     33  O   LEU     5      29.648  32.355  25.520  1.00  0.00    -0.271 OA
ATOM     34  N   LYS     6      29.731  30.331  26.514  1.00  0.00    -0.338 N 
ATOM     35  H   LYS     6      29.547  29.848  27.369  1.00 99.99     0.164 HD
BRANCH  34  36
ATOM     36  CA  LYS     6      30.833  29.753  25.717  1.00  0.00     0.159 C 
BRANCH  36  37
ATOM     37  C   LYS     6      30.353  28.797  24.597  1.00  0.00     0.251 C 
ATOM     38  O   LYS     6      31.149  28.280  23.815  1.00  0.00    -0.271 OA
ATOM     39  N   LYS     7      29.062  28.475  24.611  1.00  0.00    -0.336 N 
ATOM     40  H   LYS     7      28.449  28.831  25.314  1.00 99.99     0.164 HD
BRANCH  39  41
ATOM     41  CA  LYS     7      28.379  27.713  23.540  1.00  0.00     0.168 C 
BRANCH  41  42
ATOM     42  CB  LYS     7      27.633  26.497  24.090  1.00  0.00     0.033 C 
BRANCH  42  43
ATOM     43  CG  LYS     7      28.424  25.360  24.729  1.00  0.00     0.004 C 
BRANCH  43  44
ATOM     44  CD  LYS     7      27.351  24.354  25.144  1.00  0.00     0.032 C 
BRANCH  44  45
ATOM     45  CE  LYS     7      27.877  23.089  25.814  1.00  0.00     0.206 C 
BRANCH  45  46
ATOM     46  NZ  LYS     7      26.729  22.214  26.090  1.00  0.00    -0.064 N 
ATOM     47  HZ1 LYS     7      27.040  21.374  26.531  1.00 99.99     0.275 HD
ATOM     48  HZ2 LYS     7      26.086  22.695  26.688  1.00 99.99     0.275 HD
ATOM     49  HZ3 LYS     7      26.271  21.994  25.229  1.00 99.99     0.275 HD
ENDBRANCH  45  46
ENDBRANCH  44  45
ENDBRANCH  43  44
ENDBRANCH  42  43
ENDBRANCH  41  42
BRANCH  41  50
ATOM     50  C   LYS     7      27.273  28.600  22.954  1.00  0.00     0.206 C 
ATOM     51  OXT LYS     7      26.531  29.136  23.808  1.00 99.99    -0.646 OA
ATOM     52  O   LYS     7      27.198  28.725  21.712  1.00 99.99    -0.646 OA
ENDBRANCH  41  50
ENDBRANCH  39  41
ENDBRANCH  36  37
BRANCH  36  53
ATOM     53  CB  LYS     6      31.789  29.035  26.675  1.00  0.00     0.032 C 
BRANCH  53  54
ATOM     54  CG  LYS     6      33.174  28.920  26.035  1.00  0.00     0.004 C 
BRANCH  54  55
ATOM     55  CD  LYS     6      34.006  27.787  26.630  1.00  0.00     0.032 C 
BRANCH  55  56
ATOM     56  CE  LYS     6      35.202  27.537  25.711  1.00  0.00     0.206 C 
BRANCH  56  57
ATOM     57  NZ  LYS     6      36.035  26.427  26.191  1.00  0.00    -0.064 N 
ATOM     58  HZ3 LYS     6      35.483  25.595  26.245  1.00 99.99     0.275 HD
ATOM     59  HZ2 LYS     6      36.399  26.654  27.093  1.00 99.99     0.275 HD
ATOM     60  HZ1 LYS     6      36.789  26.285  25.550  1.00 99.99     0.275 HD
ENDBRANCH  56  57
ENDBRANCH  55  56
ENDBRANCH  54  55
ENDBRANCH  53  54
ENDBRANCH  36  53
ENDBRANCH  34  36
ENDBRANCH  27  32
ENDBRANCH  24  27
ENDBRANCH  22  23
BRANCH  22  61
ATOM     61  CB  LYS     4      24.518  29.094  28.985  1.00  0.00     0.032 C 
BRANCH  61  62
ATOM     62  CG  LYS     4      23.728  27.841  29.358  1.00  0.00     0.004 C 
BRANCH  62  63
ATOM     63  CD  LYS     4      22.392  28.292  29.952  1.00  0.00     0.032 C 
BRANCH  63  64
ATOM     64  CE  LYS     4      21.462  27.117  30.251  1.00  0.00     0.206 C 
BRANCH  64  65
ATOM     65  NZ  LYS     4      20.144  27.605  30.684  1.00  0.00    -0.064 N 
ATOM     66  HZ3 LYS     4      19.741  28.161  29.956  1.00 99.99     0.275 HD
ATOM     67  HZ2 LYS     4      20.242  28.161  31.509  1.00 99.99     0.275 HD
ATOM     68  HZ1 LYS     4      19.546  26.826  30.873  1.00 99.99     0.275 HD
ENDBRANCH  64  65
ENDBRANCH  63  64
ENDBRANCH  62  63
ENDBRANCH  61  62
ENDBRANCH  22  61
ENDBRANCH  20  22
ENDBRANCH  16  18
ENDBRANCH  13  16
ENDBRANCH  11  12
BRANCH  11  69
ATOM     69  CB  PHE     2      30.934  29.653  32.675  1.00  0.00     0.056 C 
BRANCH  69  70
ATOM     70  CG  PHE     2      32.235  29.614  31.868  1.00  0.00    -0.044 A 
ATOM     71  CD2 PHE     2      32.746  28.391  31.449  1.00  0.00     0.008 A 
ATOM     72  CE2 PHE     2      33.951  28.340  30.759  1.00  0.00     0.001 A 
ATOM     73  CZ  PHE     2      34.653  29.511  30.498  1.00  0.00     0.000 A 
ATOM     74  CE1 PHE     2      34.146  30.732  30.922  1.00  0.00     0.001 A 
ATOM     75  CD1 PHE     2      32.941  30.785  31.612  1.00  0.00     0.008 A 
ENDBRANCH  69  70
ENDBRANCH  11  69
ENDBRANCH   9  11
ENDBRANCH   5   7
ENDBRANCH   1   5
TORSDOF 33
