REMARK WARNING: 32 MAX_TORS EXCEEDED!!!
REMARK  34 active torsions:
REMARK  status: ('A' for Active; 'I' for Inactive)
REMARK    1  A    between atoms: N_1  and  CA_2 
REMARK    2  A    between atoms: CA_2  and  C_3 
REMARK    3  A    between atoms: CA_2  and  CB_5 
REMARK       I    between atoms: C_3  and  N_16 
REMARK    4  A    between atoms: CB_5  and  CG_6 
REMARK    5  A    between atoms: CG_6  and  CD_7 
REMARK    6  A    between atoms: CD_7  and  CE_8 
REMARK    7  A    between atoms: CE_8  and  NZ_9 
REMARK    8  A    between atoms: N_16  and  CA_17 
REMARK    9  A    between atoms: CA_17  and  C_18 
REMARK   10  A    between atoms: CA_17  and  CB_20 
REMARK       I    between atoms: C_18  and  N_29 
REMARK   11  A    between atoms: CB_20  and  CG_21 
REMARK   12  A    between atoms: CG_21  and  CD_22 
REMARK   13  A    between atoms: CD_22  and  CE_23 
REMARK   14  A    between atoms: CE_23  and  NZ_24 
REMARK   15  A    between atoms: N_29  and  CA_30 
REMARK   16  A    between atoms: CA_30  and  C_31 
REMARK   17  A    between atoms: CA_30  and  CB_33 
REMARK       I    between atoms: C_31  and  N_42 
REMARK   18  A    between atoms: CB_33  and  CG_34 
REMARK   19  A    between atoms: CG_34  and  CD_35 
REMARK   20  A    between atoms: CD_35  and  CE_36 
REMARK   21  A    between atoms: CE_36  and  NZ_37 
REMARK   22  A    between atoms: N_42  and  CA_43 
REMARK   23  A    between atoms: CA_43  and  CB_46 
REMARK   24  A    between atoms: CA_43  and  C_44 
REMARK       I    between atoms: C_44  and  N_51 
REMARK   25  A    between atoms: CB_46  and  CG_47 
REMARK   26  A    between atoms: N_51  and  CA_52 
REMARK   27  A    between atoms: CA_52  and  C_53 
REMARK       I    between atoms: C_53  and  N_57 
REMARK   28  A    between atoms: N_57  and  CA_58 
REMARK   29  A    between atoms: CA_58  and  CB_61 
REMARK   30  A    between atoms: CA_58  and  C_59 
REMARK       I    between atoms: C_59  and  N_71 
REMARK   31  A    between atoms: CB_61  and  CG_62 
REMARK   32  A    between atoms: CZ_67  and  OH_68 
REMARK   33  A    between atoms: N_71  and  CA_72 
REMARK   34  A    between atoms: CA_72  and  C_73 
ROOT
ATOM      1  N   LYS     1      25.658  28.739  33.182  1.00  0.00    -0.058 N 
ATOM      2  H1  LYS     1      26.178  27.949  32.856  1.00 99.99     0.276 HD
ATOM      3  H2  LYS     1      25.743  28.807  34.156  1.00 99.99     0.276 HD
ATOM      4  H3  LYS     1      24.695  28.562  33.014  1.00 99.99     0.276 HD
ENDROOT
BRANCH   1   5
ATOM      5  CA  LYS     1      26.129  29.946  32.462  1.00  0.00     0.255 C 
BRANCH   5   6
ATOM      6  C   LYS     1      27.279  29.520  31.515  1.00  0.00     0.259 C 
ATOM      7  O   LYS     1      26.977  28.664  30.687  1.00  0.00    -0.271 OA
ATOM      8  N   LYS     2      28.558  29.778  31.836  1.00  0.00    -0.338 N 
ATOM      9  H   LYS     2      28.790  30.240  32.691  1.00 99.99     0.164 HD
BRANCH   8  10
ATOM     10  CA  LYS     2      29.747  29.469  30.990  1.00  0.00     0.159 C 
BRANCH  10  11
ATOM     11  C   LYS     2      29.522  28.693  29.671  1.00  0.00     0.251 C 
ATOM     12  N   LYS     3      29.304  27.373  29.737  1.00  0.00    -0.338 N 
ATOM     13  H   LYS     3      29.420  26.878  30.597  1.00 99.99     0.164 HD
ATOM     14  O   LYS     2      29.376  29.336  28.635  1.00  0.00    -0.271 OA
BRANCH  12  15
ATOM     15  CA  LYS     3      28.950  26.509  28.582  1.00  0.00     0.159 C 
BRANCH  15  16
ATOM     16  C   LYS     3      27.955  27.141  27.573  1.00  0.00     0.251 C 
ATOM     17  O   LYS     3      28.317  27.339  26.415  1.00  0.00    -0.271 OA
ATOM     18  N   LEU     4      26.847  27.688  28.080  1.00  0.00    -0.338 N 
ATOM     19  H   LEU     4      26.724  27.771  29.073  1.00 99.99     0.164 HD
BRANCH  18  20
ATOM     20  CA  LEU     4      25.771  28.340  27.294  1.00  0.00     0.159 C 
BRANCH  20  21
ATOM     21  CB  LEU     4      24.538  28.525  28.190  1.00  0.00     0.032 C 
BRANCH  21  22
ATOM     22  CG  LEU     4      23.865  27.227  28.650  1.00  0.00     0.002 C 
ATOM     23  CD2 LEU     4      23.245  26.461  27.477  1.00  0.00     0.000 C 
ATOM     24  CD1 LEU     4      22.778  27.577  29.667  1.00  0.00     0.000 C 
ENDBRANCH  21  22
ENDBRANCH  20  21
BRANCH  20  25
ATOM     25  C   LEU     4      26.114  29.702  26.646  1.00  0.00     0.251 C 
ATOM     26  O   LEU     4      25.232  30.396  26.142  1.00  0.00    -0.271 OA
ATOM     27  N   ALA     5      27.337  30.165  26.894  1.00  0.00    -0.338 N 
ATOM     28  H   ALA     5      27.921  29.731  27.582  1.00 99.99     0.164 HD
BRANCH  27  29
ATOM     29  CA  ALA     5      27.926  31.382  26.299  1.00  0.00     0.159 C 
ATOM     30  CB  ALA     5      28.103  32.404  27.427  1.00  0.00     0.034 C 
BRANCH  29  31
ATOM     31  C   ALA     5      29.267  31.116  25.576  1.00  0.00     0.251 C 
ATOM     32  N   TYR     6      29.604  29.831  25.449  1.00  0.00    -0.337 N 
ATOM     33  H   TYR     6      29.151  29.132  26.000  1.00 99.99     0.164 HD
ATOM     34  O   ALA     5      30.009  32.037  25.238  1.00  0.00    -0.271 OA
BRANCH  32  35
ATOM     35  CA  TYR     6      30.734  29.316  24.641  1.00  0.00     0.164 C 
BRANCH  35  36
ATOM     36  CB  TYR     6      31.664  28.441  25.488  1.00  0.00     0.056 C 
BRANCH  36  37
ATOM     37  CG  TYR     6      32.317  29.041  26.737  1.00  0.00    -0.044 A 
ATOM     38  CD2 TYR     6      32.776  28.133  27.679  1.00  0.00     0.011 A 
ATOM     39  CE2 TYR     6      33.528  28.555  28.765  1.00  0.00     0.037 A 
ATOM     40  CZ  TYR     6      33.826  29.903  28.909  1.00  0.00     0.065 A 
ATOM     41  CE1 TYR     6      33.355  30.824  27.980  1.00  0.00     0.037 A 
ATOM     42  CD1 TYR     6      32.603  30.394  26.891  1.00  0.00     0.011 A 
BRANCH  40  43
ATOM     43  OH  TYR     6      34.643  30.304  29.918  1.00  0.00    -0.361 OA
ATOM     44  HH  TYR     6      34.908  29.511  30.462  1.00 99.99     0.217 HD
ENDBRANCH  40  43
ENDBRANCH  36  37
ENDBRANCH  35  36
BRANCH  35  45
ATOM     45  C   TYR     6      30.249  28.443  23.464  1.00  0.00     0.251 C 
ATOM     46  N   ALA     7      28.974  28.064  23.530  1.00  0.00    -0.336 N 
ATOM     47  H   ALA     7      28.407  28.324  24.310  1.00 99.99     0.164 HD
ATOM     48  O   TYR     6      31.044  27.977  22.650  1.00  0.00    -0.271 OA
BRANCH  46  49
ATOM     49  CA  ALA     7      28.256  27.289  22.501  1.00  0.00     0.168 C 
ATOM     50  CB  ALA     7      27.651  26.049  23.168  1.00  0.00     0.036 C 
BRANCH  49  51
ATOM     51  C   ALA     7      27.125  28.147  21.910  1.00  0.00     0.206 C 
ATOM     52  OXT ALA     7      26.428  28.766  22.745  1.00 99.99    -0.646 OA
ATOM     53  O   ALA     7      27.068  28.266  20.668  1.00 99.99    -0.646 OA
ENDBRANCH  49  51
ENDBRANCH  46  49
ENDBRANCH  35  45
ENDBRANCH  32  35
ENDBRANCH  29  31
ENDBRANCH  27  29
ENDBRANCH  20  25
ENDBRANCH  18  20
ENDBRANCH  15  16
BRANCH  15  54
ATOM     54  CB  LYS     3      28.417  25.169  29.119  1.00  0.00     0.032 C 
BRANCH  54  55
ATOM     55  CG  LYS     3      28.225  24.117  28.019  1.00  0.00     0.004 C 
BRANCH  55  56
ATOM     56  CD  LYS     3      27.672  22.792  28.553  1.00  0.00     0.032 C 
BRANCH  56  57
ATOM     57  CE  LYS     3      27.475  21.807  27.397  1.00  0.00     0.206 C 
BRANCH  57  58
ATOM     58  NZ  LYS     3      26.952  20.508  27.847  1.00  0.00    -0.064 N 
ATOM     59  HZ1 LYS     3      26.839  19.907  27.055  1.00 99.99     0.275 HD
ATOM     60  HZ3 LYS     3      26.065  20.634  28.291  1.00 99.99     0.275 HD
ATOM     61  HZ2 LYS     3      27.594  20.088  28.489  1.00 99.99     0.275 HD
ENDBRANCH  57  58
ENDBRANCH  56  57
ENDBRANCH  55  56
ENDBRANCH  54  55
ENDBRANCH  15  54
ENDBRANCH  12  15
ENDBRANCH  10  11
BRANCH  10  62
ATOM     62  CB  LYS     2      30.919  28.905  31.812  1.00  0.00     0.032 C 
BRANCH  62  63
ATOM     63  CG  LYS     2      31.598  30.002  32.644  1.00  0.00     0.004 C 
BRANCH  63  64
ATOM     64  CD  LYS     2      32.887  29.521  33.321  1.00  0.00     0.032 C 
BRANCH  64  65
ATOM     65  CE  LYS     2      33.534  30.649  34.134  1.00  0.00     0.206 C 
BRANCH  65  66
ATOM     66  NZ  LYS     2      34.804  30.243  34.759  1.00  0.00    -0.064 N 
ATOM     67  HZ2 LYS     2      34.654  29.470  35.376  1.00 99.99     0.275 HD
ATOM     68  HZ3 LYS     2      35.463  29.985  34.053  1.00 99.99     0.275 HD
ATOM     69  HZ1 LYS     2      35.177  31.010  35.282  1.00 99.99     0.275 HD
ENDBRANCH  65  66
ENDBRANCH  64  65
ENDBRANCH  63  64
ENDBRANCH  62  63
ENDBRANCH  10  62
ENDBRANCH   8  10
ENDBRANCH   5   6
BRANCH   5  70
ATOM     70  CB  LYS     1      26.444  31.115  33.422  1.00  0.00     0.040 C 
BRANCH  70  71
ATOM     71  CG  LYS     1      26.321  32.475  32.711  1.00  0.00     0.004 C 
BRANCH  71  72
ATOM     72  CD  LYS     1      26.274  33.681  33.662  1.00  0.00     0.032 C 
BRANCH  72  73
ATOM     73  CE  LYS     1      26.007  34.977  32.882  1.00  0.00     0.206 C 
BRANCH  73  74
ATOM     74  NZ  LYS     1      25.838  36.163  33.741  1.00  0.00    -0.064 N 
ATOM     75  HZ3 LYS     1      26.667  36.322  34.278  1.00 99.99     0.275 HD
ATOM     76  HZ1 LYS     1      25.666  36.966  33.168  1.00 99.99     0.275 HD
ATOM     77  HZ2 LYS     1      25.060  36.035  34.356  1.00 99.99     0.275 HD
ENDBRANCH  73  74
ENDBRANCH  72  73
ENDBRANCH  71  72
ENDBRANCH  70  71
ENDBRANCH   5  70
ENDBRANCH   1   5
TORSDOF 34
