REMARK WARNING: 32 MAX_TORS EXCEEDED!!!
REMARK  42 active torsions:
REMARK  status: ('A' for Active; 'I' for Inactive)
REMARK    1  A    between atoms: N_1  and  CA_2 
REMARK    2  A    between atoms: CA_2  and  C_3 
REMARK    3  A    between atoms: CA_2  and  CB_5 
REMARK       I    between atoms: C_3  and  N_12 
REMARK    4  A    between atoms: CB_5  and  CG1_6 
REMARK    5  A    between atoms: N_12  and  CA_13 
REMARK    6  A    between atoms: CA_13  and  CB_16 
REMARK    7  A    between atoms: CA_13  and  C_14 
REMARK       I    between atoms: C_14  and  N_29 
REMARK    8  A    between atoms: CB_16  and  CG_17 
REMARK    9  A    between atoms: CG_17  and  CD_18 
REMARK   10  A    between atoms: CD_18  and  NE_19 
REMARK       I    between atoms: NE_19  and  CZ_20 
REMARK       I    between atoms: CZ_20  and  NH2_22 
REMARK       I    between atoms: CZ_20  and  NH1_21 
REMARK   11  A    between atoms: N_29  and  CA_30 
REMARK   12  A    between atoms: CA_30  and  C_31 
REMARK   13  A    between atoms: CA_30  and  CB_33 
REMARK       I    between atoms: C_31  and  N_38 
REMARK   14  A    between atoms: CB_33  and  CG1_34 
REMARK   15  A    between atoms: N_38  and  CA_39 
REMARK   16  A    between atoms: CA_39  and  CB_42 
REMARK   17  A    between atoms: CA_39  and  C_40 
REMARK       I    between atoms: C_40  and  N_51 
REMARK   18  A    between atoms: CB_42  and  CG_43 
REMARK   19  A    between atoms: CG_43  and  CD_44 
REMARK   20  A    between atoms: CD_44  and  CE_45 
REMARK   21  A    between atoms: CE_45  and  NZ_46 
REMARK   22  A    between atoms: N_51  and  CA_52 
REMARK   23  A    between atoms: CA_52  and  C_53 
REMARK   24  A    between atoms: CA_52  and  CB_55 
REMARK       I    between atoms: C_53  and  N_60 
REMARK   25  A    between atoms: CB_55  and  CG1_56 
REMARK   26  A    between atoms: N_60  and  CA_61 
REMARK   27  A    between atoms: CA_61  and  CB_64 
REMARK   28  A    between atoms: CA_61  and  C_62 
REMARK       I    between atoms: C_62  and  N_77 
REMARK   29  A    between atoms: CB_64  and  CG_65 
REMARK   30  A    between atoms: CG_65  and  CD_66 
REMARK   31  A    between atoms: CD_66  and  NE_67 
REMARK       I    between atoms: NE_67  and  CZ_68 
REMARK       I    between atoms: CZ_68  and  NH1_69 
REMARK   32  A    between atoms: N_77  and  CA_78 
REMARK   33  A    between atoms: CA_78  and  CB_81 
REMARK   34  A    between atoms: CA_78  and  C_79 
REMARK       I    between atoms: C_79  and  N_86 
REMARK   35  A    between atoms: CB_81  and  CG1_82 
REMARK   36  A    between atoms: N_86  and  CA_87 
REMARK   37  A    between atoms: CA_87  and  C_88 
REMARK   38  A    between atoms: CA_87  and  CB_90 
REMARK   39  A    between atoms: CB_90  and  CG_91 
REMARK   40  A    between atoms: CG_91  and  CD_92 
REMARK   41  A    between atoms: CD_92  and  CE_93 
REMARK   42  A    between atoms: CE_93  and  NZ_94 
ROOT
ATOM      1  N   ILE     1      33.621  33.003  35.711  1.00  0.00    -0.058 N 
ATOM      2  H1  ILE     1      33.129  33.074  34.842  1.00 99.99     0.276 HD
ATOM      3  H2  ILE     1      34.562  33.276  35.580  1.00 99.99     0.276 HD
ATOM      4  H3  ILE     1      33.668  32.047  35.974  1.00 99.99     0.276 HD
ENDROOT
BRANCH   1   5
ATOM      5  CA  ILE     1      32.911  33.848  36.709  1.00  0.00     0.255 C 
BRANCH   5   6
ATOM      6  C   ILE     1      31.671  34.550  36.085  1.00  0.00     0.259 C 
ATOM      7  O   ILE     1      31.242  34.145  35.006  1.00  0.00    -0.271 OA
ATOM      8  N   ARG     2      31.142  35.622  36.694  1.00  0.00    -0.338 N 
ATOM      9  H   ARG     2      31.454  35.934  37.588  1.00 99.99     0.164 HD
BRANCH   8  10
ATOM     10  CA  ARG     2      29.971  36.365  36.156  1.00  0.00     0.159 C 
BRANCH  10  11
ATOM     11  CB  ARG     2      29.528  37.471  37.119  1.00  0.00     0.034 C 
BRANCH  11  12
ATOM     12  CG  ARG     2      28.845  36.945  38.386  1.00  0.00     0.027 C 
BRANCH  12  13
ATOM     13  CD  ARG     2      28.397  38.119  39.259  1.00  0.00     0.116 C 
BRANCH  13  14
ATOM     14  NE  ARG     2      27.734  37.637  40.484  1.00  0.00    -0.212 N 
ATOM     15  HE  ARG     2      27.573  36.652  40.524  1.00 99.99     0.178 HD
ATOM     16  CZ  ARG     2      27.301  38.390  41.500  1.00  0.00     0.666 C 
ATOM     17  NH2 ARG     2      26.782  37.819  42.581  1.00  0.00    -0.235 N 
ATOM     18  NH1 ARG     2      27.410  39.712  41.496  1.00  0.00    -0.235 N 
ATOM     19 1HH2 ARG     2      26.467  38.394  43.333  1.00 99.99     0.174 HD
ATOM     20 2HH2 ARG     2      26.706  36.828  42.646  1.00 99.99     0.174 HD
ATOM     21 2HH1 ARG     2      27.816  40.162  40.706  1.00 99.99     0.174 HD
ATOM     22 1HH1 ARG     2      27.080  40.250  42.271  1.00 99.99     0.174 HD
ENDBRANCH  13  14
ENDBRANCH  12  13
ENDBRANCH  11  12
ENDBRANCH  10  11
BRANCH  10  23
ATOM     23  C   ARG     2      30.153  36.973  34.747  1.00  0.00     0.251 C 
ATOM     24  O   ARG     2      29.188  37.093  33.995  1.00  0.00    -0.271 OA
ATOM     25  N   ILE     3      31.353  37.483  34.470  1.00  0.00    -0.338 N 
ATOM     26  H   ILE     3      32.044  37.578  35.181  1.00 99.99     0.164 HD
BRANCH  25  27
ATOM     27  CA  ILE     3      31.769  37.988  33.140  1.00  0.00     0.159 C 
BRANCH  27  28
ATOM     28  C   ILE     3      31.698  36.838  32.109  1.00  0.00     0.251 C 
ATOM     29  N   LYS     4      31.391  37.193  30.857  1.00  0.00    -0.338 N 
ATOM     30  H   LYS     4      31.236  38.152  30.636  1.00 99.99     0.164 HD
ATOM     31  O   ILE     3      32.003  35.698  32.454  1.00  0.00    -0.271 OA
BRANCH  29  32
ATOM     32  CA  LYS     4      31.192  36.284  29.698  1.00  0.00     0.159 C 
BRANCH  32  33
ATOM     33  CB  LYS     4      30.625  37.103  28.524  1.00  0.00     0.032 C 
BRANCH  33  34
ATOM     34  CG  LYS     4      29.202  37.627  28.738  1.00  0.00     0.004 C 
BRANCH  34  35
ATOM     35  CD  LYS     4      28.747  38.422  27.511  1.00  0.00     0.032 C 
BRANCH  35  36
ATOM     36  CE  LYS     4      27.315  38.941  27.667  1.00  0.00     0.206 C 
BRANCH  36  37
ATOM     37  NZ  LYS     4      26.896  39.715  26.487  1.00  0.00    -0.064 N 
ATOM     38  HZ1 LYS     4      25.958  40.036  26.616  1.00 99.99     0.275 HD
ATOM     39  HZ2 LYS     4      27.502  40.501  26.368  1.00 99.99     0.275 HD
ATOM     40  HZ3 LYS     4      26.939  39.136  25.673  1.00 99.99     0.275 HD
ENDBRANCH  36  37
ENDBRANCH  35  36
ENDBRANCH  34  35
ENDBRANCH  33  34
ENDBRANCH  32  33
BRANCH  32  41
ATOM     41  C   LYS     4      32.422  35.461  29.236  1.00  0.00     0.251 C 
ATOM     42  N   ILE     5      32.958  34.678  30.166  1.00  0.00    -0.338 N 
ATOM     43  H   ILE     5      32.601  34.698  31.106  1.00 99.99     0.164 HD
ATOM     44  O   LYS     4      32.854  35.502  28.084  1.00  0.00    -0.271 OA
BRANCH  42  45
ATOM     45  CA  ILE     5      34.106  33.769  29.963  1.00  0.00     0.159 C 
BRANCH  45  46
ATOM     46  C   ILE     5      33.731  32.327  30.335  1.00  0.00     0.251 C 
ATOM     47  N   ARG     6      34.393  31.383  29.675  1.00  0.00    -0.338 N 
ATOM     48  H   ARG     6      35.077  31.595  28.981  1.00 99.99     0.164 HD
ATOM     49  O   ILE     5      32.945  32.091  31.252  1.00  0.00    -0.271 OA
BRANCH  47  50
ATOM     50  CA  ARG     6      34.228  29.947  29.969  1.00  0.00     0.159 C 
BRANCH  50  51
ATOM     51  CB  ARG     6      34.139  29.122  28.681  1.00  0.00     0.034 C 
BRANCH  51  52
ATOM     52  CG  ARG     6      32.937  29.511  27.819  1.00  0.00     0.027 C 
BRANCH  52  53
ATOM     53  CD  ARG     6      32.826  28.579  26.613  1.00  0.00     0.116 C 
BRANCH  53  54
ATOM     54  NE  ARG     6      31.726  29.032  25.740  1.00  0.00    -0.212 N 
ATOM     55  CZ  ARG     6      30.462  28.602  25.759  1.00  0.00     0.666 C 
ATOM     56  NH1 ARG     6      30.039  27.688  26.624  1.00  0.00    -0.235 N 
ATOM     57  NH2 ARG     6      29.588  29.088  24.890  1.00  0.00    -0.235 N 
ATOM     58 2HH1 ARG     6      30.684  27.312  27.283  1.00 99.99     0.174 HD
ATOM     59 1HH1 ARG     6      29.086  27.387  26.616  1.00 99.99     0.174 HD
ATOM     60 2HH2 ARG     6      29.867  29.771  24.220  1.00 99.99     0.174 HD
ATOM     61 1HH2 ARG     6      28.644  28.763  24.910  1.00 99.99     0.174 HD
ATOM     62  HE  ARG     6      31.979  29.729  25.075  1.00 99.99     0.178 HD
ENDBRANCH  53  54
ENDBRANCH  52  53
ENDBRANCH  51  52
ENDBRANCH  50  51
BRANCH  50  63
ATOM     63  C   ARG     6      35.435  29.472  30.785  1.00  0.00     0.251 C 
ATOM     64  N   ILE     7      35.126  28.781  31.873  1.00  0.00    -0.338 N 
ATOM     65  H   ILE     7      34.181  28.526  32.086  1.00 99.99     0.164 HD
ATOM     66  O   ARG     6      36.578  29.812  30.487  1.00  0.00    -0.271 OA
BRANCH  64  67
ATOM     67  CA  ILE     7      36.140  28.267  32.812  1.00  0.00     0.159 C 
BRANCH  67  68
ATOM     68  CB  ILE     7      36.020  28.964  34.189  1.00  0.00     0.029 C 
ATOM     69  CG2 ILE     7      36.525  30.409  34.079  1.00  0.00     0.002 C 
BRANCH  68  70
ATOM     70  CG1 ILE     7      34.602  28.856  34.792  1.00  0.00     0.002 C 
ATOM     71  CD  ILE     7      34.495  29.294  36.258  1.00  0.00     0.000 C 
ENDBRANCH  68  70
ENDBRANCH  67  68
BRANCH  67  72
ATOM     72  C   ILE     7      36.067  26.735  32.929  1.00  0.00     0.251 C 
ATOM     73  O   ILE     7      35.318  26.074  32.212  1.00  0.00    -0.271 OA
ATOM     74  N   LYS     8      36.940  26.195  33.770  1.00  0.00    -0.336 N 
ATOM     75  H   LYS     8      37.698  26.724  34.148  1.00 99.99     0.164 HD
BRANCH  74  76
ATOM     76  CA  LYS     8      36.844  24.804  34.263  1.00  0.00     0.168 C 
BRANCH  76  77
ATOM     77  C   LYS     8      36.410  24.899  35.736  1.00  0.00     0.206 C 
ATOM     78  O   LYS     8      35.390  24.273  36.096  1.00 99.99    -0.646 OA
ATOM     79  OXT LYS     8      37.019  25.770  36.400  1.00 99.99    -0.646 OA
ENDBRANCH  76  77
BRANCH  76  80
ATOM     80  CB  LYS     8      38.216  24.120  34.265  1.00  0.00     0.033 C 
BRANCH  80  81
ATOM     81  CG  LYS     8      38.989  24.159  32.945  1.00  0.00     0.004 C 
BRANCH  81  82
ATOM     82  CD  LYS     8      40.396  23.626  33.216  1.00  0.00     0.032 C 
BRANCH  82  83
ATOM     83  CE  LYS     8      41.309  23.718  31.994  1.00  0.00     0.206 C 
BRANCH  83  84
ATOM     84  NZ  LYS     8      42.654  23.249  32.353  1.00  0.00    -0.064 N 
ATOM     85  HZ3 LYS     8      42.603  22.301  32.666  1.00 99.99     0.275 HD
ATOM     86  HZ1 LYS     8      43.255  23.304  31.555  1.00 99.99     0.275 HD
ATOM     87  HZ2 LYS     8      43.021  23.821  33.087  1.00 99.99     0.275 HD
ENDBRANCH  83  84
ENDBRANCH  82  83
ENDBRANCH  81  82
ENDBRANCH  80  81
ENDBRANCH  76  80
ENDBRANCH  74  76
ENDBRANCH  67  72
ENDBRANCH  64  67
ENDBRANCH  50  63
ENDBRANCH  47  50
ENDBRANCH  45  46
BRANCH  45  88
ATOM     88  CB  ILE     5      35.352  34.215  30.766  1.00  0.00     0.029 C 
ATOM     89  CG2 ILE     5      35.930  35.496  30.150  1.00  0.00     0.002 C 
BRANCH  88  90
ATOM     90  CG1 ILE     5      35.077  34.342  32.276  1.00  0.00     0.002 C 
ATOM     91  CD  ILE     5      36.342  34.422  33.141  1.00  0.00     0.000 C 
ENDBRANCH  88  90
ENDBRANCH  45  88
ENDBRANCH  42  45
ENDBRANCH  32  41
ENDBRANCH  29  32
ENDBRANCH  27  28
BRANCH  27  92
ATOM     92  CB  ILE     3      33.195  38.590  33.266  1.00  0.00     0.029 C 
ATOM     93  CG2 ILE     3      33.741  39.076  31.914  1.00  0.00     0.002 C 
BRANCH  92  94
ATOM     94  CG1 ILE     3      33.196  39.738  34.292  1.00  0.00     0.002 C 
ATOM     95  CD  ILE     3      34.591  40.199  34.744  1.00  0.00     0.000 C 
ENDBRANCH  92  94
ENDBRANCH  27  92
ENDBRANCH  25  27
ENDBRANCH  10  23
ENDBRANCH   8  10
ENDBRANCH   5   6
BRANCH   5  96
ATOM     96  CB  ILE     1      33.859  34.854  37.404  1.00  0.00     0.037 C 
ATOM     97  CG2 ILE     1      34.853  34.106  38.305  1.00  0.00     0.002 C 
BRANCH  96  98
ATOM     98  CG1 ILE     1      34.549  35.807  36.407  1.00  0.00     0.002 C 
ATOM     99  CD  ILE     1      35.177  37.043  37.063  1.00  0.00     0.000 C 
ENDBRANCH  96  98
ENDBRANCH   5  96
ENDBRANCH   1   5
TORSDOF 42
