REMARK WARNING: 32 MAX_TORS EXCEEDED!!!
REMARK  33 active torsions:
REMARK  status: ('A' for Active; 'I' for Inactive)
REMARK    1  A    between atoms: N_1  and  CA_2 
REMARK    2  A    between atoms: CA_2  and  C_3 
REMARK       I    between atoms: C_3  and  N_9 
REMARK    3  A    between atoms: N_9  and  CA_10 
REMARK    4  A    between atoms: CA_10  and  C_11 
REMARK    5  A    between atoms: CA_10  and  CB_13 
REMARK       I    between atoms: C_11  and  N_21 
REMARK    6  A    between atoms: CB_13  and  CG_14 
REMARK    7  A    between atoms: N_21  and  CA_22 
REMARK    8  A    between atoms: CA_22  and  C_23 
REMARK       I    between atoms: C_23  and  N_27 
REMARK    9  A    between atoms: N_27  and  CA_28 
REMARK   10  A    between atoms: CA_28  and  CB_31 
REMARK   11  A    between atoms: CA_28  and  C_29 
REMARK       I    between atoms: C_29  and  N_36 
REMARK   12  A    between atoms: CB_31  and  CG_32 
REMARK   13  A    between atoms: N_36  and  CA_37 
REMARK   14  A    between atoms: CA_37  and  C_38 
REMARK   15  A    between atoms: CA_37  and  CB_40 
REMARK       I    between atoms: C_38  and  N_49 
REMARK   16  A    between atoms: CB_40  and  CG_41 
REMARK   17  A    between atoms: CG_41  and  CD_42 
REMARK   18  A    between atoms: CD_42  and  CE_43 
REMARK   19  A    between atoms: CE_43  and  NZ_44 
REMARK   20  A    between atoms: N_49  and  CA_50 
REMARK   21  A    between atoms: CA_50  and  C_51 
REMARK   22  A    between atoms: CA_50  and  CB_53 
REMARK       I    between atoms: C_51  and  N_62 
REMARK   23  A    between atoms: CB_53  and  CG_54 
REMARK   24  A    between atoms: CG_54  and  CD_55 
REMARK   25  A    between atoms: CD_55  and  CE_56 
REMARK   26  A    between atoms: CE_56  and  NZ_57 
REMARK   27  A    between atoms: N_62  and  CA_63 
REMARK   28  A    between atoms: CA_63  and  CB_66 
REMARK   29  A    between atoms: CA_63  and  C_64 
REMARK   30  A    between atoms: CB_66  and  CG_67 
REMARK   31  A    between atoms: CG_67  and  CD_68 
REMARK   32  A    between atoms: CD_68  and  CE_69 
REMARK   33  A    between atoms: CE_69  and  NZ_70 
ROOT
ATOM      1  N   ALA     1      22.167  28.971  28.614  1.00  0.00    -0.058 N 
ATOM      2  H1  ALA     1      22.807  28.226  28.797  1.00 99.99     0.276 HD
ATOM      3  H2  ALA     1      21.468  28.999  29.312  1.00 99.99     0.276 HD
ATOM      4  H3  ALA     1      21.672  28.771  27.772  1.00 99.99     0.276 HD
ENDROOT
BRANCH   1   5
ATOM      5  CA  ALA     1      22.912  30.250  28.524  1.00  0.00     0.255 C 
ATOM      6  CB  ALA     1      22.288  31.309  29.448  1.00  0.00     0.042 C 
BRANCH   5   7
ATOM      7  C   ALA     1      24.442  30.086  28.726  1.00  0.00     0.259 C 
ATOM      8  O   ALA     1      25.093  29.617  27.795  1.00  0.00    -0.271 OA
ATOM      9  N   PHE     2      24.936  30.135  29.973  1.00  0.00    -0.337 N 
ATOM     10  H   PHE     2      24.346  30.299  30.762  1.00 99.99     0.164 HD
BRANCH   9  11
ATOM     11  CA  PHE     2      26.384  30.113  30.300  1.00  0.00     0.164 C 
BRANCH  11  12
ATOM     12  C   PHE     2      27.230  29.025  29.606  1.00  0.00     0.251 C 
ATOM     13  N   ALA     3      26.742  27.780  29.582  1.00  0.00    -0.338 N 
ATOM     14  H   ALA     3      25.970  27.517  30.154  1.00 99.99     0.164 HD
ATOM     15  O   PHE     2      28.251  29.360  29.010  1.00  0.00    -0.271 OA
BRANCH  13  16
ATOM     16  CA  ALA     3      27.381  26.656  28.858  1.00  0.00     0.159 C 
ATOM     17  CB  ALA     3      26.440  25.444  28.871  1.00  0.00     0.034 C 
BRANCH  16  18
ATOM     18  C   ALA     3      27.797  27.034  27.420  1.00  0.00     0.251 C 
ATOM     19  N   LEU     4      26.798  27.358  26.597  1.00  0.00    -0.338 N 
ATOM     20  H   LEU     4      25.855  27.220  26.887  1.00 99.99     0.164 HD
ATOM     21  O   ALA     3      28.976  27.293  27.193  1.00  0.00    -0.271 OA
BRANCH  19  22
ATOM     22  CA  LEU     4      26.895  27.826  25.193  1.00  0.00     0.159 C 
BRANCH  22  23
ATOM     23  CB  LEU     4      25.474  28.112  24.687  1.00  0.00     0.032 C 
BRANCH  23  24
ATOM     24  CG  LEU     4      24.523  26.909  24.705  1.00  0.00     0.002 C 
ATOM     25  CD2 LEU     4      24.932  25.852  23.675  1.00  0.00     0.000 C 
ATOM     26  CD1 LEU     4      23.102  27.392  24.415  1.00  0.00     0.000 C 
ENDBRANCH  23  24
ENDBRANCH  22  23
BRANCH  22  27
ATOM     27  C   LEU     4      27.758  29.078  24.919  1.00  0.00     0.251 C 
ATOM     28  N   LYS     5      28.162  29.769  25.982  1.00  0.00    -0.338 N 
ATOM     29  H   LYS     5      27.827  29.555  26.899  1.00 99.99     0.164 HD
ATOM     30  O   LEU     4      27.896  29.486  23.767  1.00  0.00    -0.271 OA
BRANCH  28  31
ATOM     31  CA  LYS     5      29.074  30.933  25.923  1.00  0.00     0.159 C 
BRANCH  31  32
ATOM     32  C   LYS     5      30.528  30.641  26.354  1.00  0.00     0.251 C 
ATOM     33  O   LYS     5      31.378  31.528  26.303  1.00  0.00    -0.271 OA
ATOM     34  N   LYS     6      30.761  29.443  26.890  1.00  0.00    -0.338 N 
ATOM     35  H   LYS     6      30.010  28.794  27.024  1.00 99.99     0.164 HD
BRANCH  34  36
ATOM     36  CA  LYS     6      32.071  28.999  27.418  1.00  0.00     0.159 C 
BRANCH  36  37
ATOM     37  C   LYS     6      32.567  27.661  26.821  1.00  0.00     0.251 C 
ATOM     38  O   LYS     6      33.755  27.346  26.860  1.00  0.00    -0.271 OA
ATOM     39  N   LYS     7      31.609  26.809  26.466  1.00  0.00    -0.336 N 
ATOM     40  H   LYS     7      30.643  27.048  26.602  1.00 99.99     0.164 HD
BRANCH  39  41
ATOM     41  CA  LYS     7      31.801  25.489  25.827  1.00  0.00     0.168 C 
BRANCH  41  42
ATOM     42  CB  LYS     7      31.525  24.355  26.819  1.00  0.00     0.033 C 
BRANCH  42  43
ATOM     43  CG  LYS     7      32.405  24.266  28.064  1.00  0.00     0.004 C 
BRANCH  43  44
ATOM     44  CD  LYS     7      31.922  23.026  28.812  1.00  0.00     0.032 C 
BRANCH  44  45
ATOM     45  CE  LYS     7      32.735  22.697  30.059  1.00  0.00     0.206 C 
BRANCH  45  46
ATOM     46  NZ  LYS     7      32.266  21.405  30.578  1.00  0.00    -0.064 N 
ATOM     47  HZ3 LYS     7      32.403  20.706  29.876  1.00 99.99     0.275 HD
ATOM     48  HZ2 LYS     7      31.292  21.468  30.795  1.00 99.99     0.275 HD
ATOM     49  HZ1 LYS     7      32.782  21.162  31.398  1.00 99.99     0.275 HD
ENDBRANCH  45  46
ENDBRANCH  44  45
ENDBRANCH  43  44
ENDBRANCH  42  43
ENDBRANCH  41  42
BRANCH  41  50
ATOM     50  C   LYS     7      30.738  25.325  24.730  1.00  0.00     0.206 C 
ATOM     51  OXT LYS     7      29.566  25.590  25.087  1.00 99.99    -0.646 OA
ATOM     52  O   LYS     7      31.101  24.949  23.595  1.00 99.99    -0.646 OA
ENDBRANCH  41  50
ENDBRANCH  39  41
ENDBRANCH  36  37
BRANCH  36  53
ATOM     53  CB  LYS     6      31.946  28.903  28.944  1.00  0.00     0.032 C 
BRANCH  53  54
ATOM     54  CG  LYS     6      33.321  28.802  29.608  1.00  0.00     0.004 C 
BRANCH  54  55
ATOM     55  CD  LYS     6      33.237  28.555  31.112  1.00  0.00     0.032 C 
BRANCH  55  56
ATOM     56  CE  LYS     6      34.654  28.361  31.653  1.00  0.00     0.206 C 
BRANCH  56  57
ATOM     57  NZ  LYS     6      34.665  28.180  33.110  1.00  0.00    -0.064 N 
ATOM     58  HZ1 LYS     6      35.609  28.051  33.413  1.00 99.99     0.275 HD
ATOM     59  HZ3 LYS     6      34.122  27.375  33.350  1.00 99.99     0.275 HD
ATOM     60  HZ2 LYS     6      34.281  28.993  33.545  1.00 99.99     0.275 HD
ENDBRANCH  56  57
ENDBRANCH  55  56
ENDBRANCH  54  55
ENDBRANCH  53  54
ENDBRANCH  36  53
ENDBRANCH  34  36
ENDBRANCH  31  32
BRANCH  31  61
ATOM     61  CB  LYS     5      28.526  32.061  26.802  1.00  0.00     0.032 C 
BRANCH  61  62
ATOM     62  CG  LYS     5      27.293  32.753  26.218  1.00  0.00     0.004 C 
BRANCH  62  63
ATOM     63  CD  LYS     5      26.999  34.010  27.037  1.00  0.00     0.032 C 
BRANCH  63  64
ATOM     64  CE  LYS     5      25.887  34.851  26.410  1.00  0.00     0.206 C 
BRANCH  64  65
ATOM     65  NZ  LYS     5      25.763  36.137  27.112  1.00  0.00    -0.064 N 
ATOM     66  HZ3 LYS     5      26.630  36.632  27.047  1.00 99.99     0.275 HD
ATOM     67  HZ2 LYS     5      25.546  35.977  28.075  1.00 99.99     0.275 HD
ATOM     68  HZ1 LYS     5      25.040  36.682  26.688  1.00 99.99     0.275 HD
ENDBRANCH  64  65
ENDBRANCH  63  64
ENDBRANCH  62  63
ENDBRANCH  61  62
ENDBRANCH  31  61
ENDBRANCH  28  31
ENDBRANCH  22  27
ENDBRANCH  19  22
ENDBRANCH  16  18
ENDBRANCH  13  16
ENDBRANCH  11  12
BRANCH  11  69
ATOM     69  CB  PHE     2      26.555  30.066  31.825  1.00  0.00     0.056 C 
BRANCH  69  70
ATOM     70  CG  PHE     2      28.018  30.136  32.279  1.00  0.00    -0.044 A 
ATOM     71  CD1 PHE     2      28.688  31.354  32.288  1.00  0.00     0.008 A 
ATOM     72  CE1 PHE     2      29.980  31.434  32.794  1.00  0.00     0.001 A 
ATOM     73  CZ  PHE     2      30.606  30.297  33.288  1.00  0.00     0.000 A 
ATOM     74  CE2 PHE     2      29.939  29.078  33.274  1.00  0.00     0.001 A 
ATOM     75  CD2 PHE     2      28.646  28.997  32.772  1.00  0.00     0.008 A 
ENDBRANCH  69  70
ENDBRANCH  11  69
ENDBRANCH   9  11
ENDBRANCH   5   7
ENDBRANCH   1   5
TORSDOF 33
