REMARK WARNING: 32 MAX_TORS EXCEEDED!!!
REMARK  42 active torsions:
REMARK  status: ('A' for Active; 'I' for Inactive)
REMARK    1  A    between atoms: N_1  and  CA_2 
REMARK    2  A    between atoms: CA_2  and  C_3 
REMARK    3  A    between atoms: CA_2  and  CB_5 
REMARK       I    between atoms: C_3  and  N_12 
REMARK    4  A    between atoms: CB_5  and  CG1_6 
REMARK    5  A    between atoms: N_12  and  CA_13 
REMARK    6  A    between atoms: CA_13  and  CB_16 
REMARK    7  A    between atoms: CA_13  and  C_14 
REMARK       I    between atoms: C_14  and  N_29 
REMARK    8  A    between atoms: CB_16  and  CG_17 
REMARK    9  A    between atoms: CG_17  and  CD_18 
REMARK   10  A    between atoms: CD_18  and  NE_19 
REMARK       I    between atoms: NE_19  and  CZ_20 
REMARK       I    between atoms: CZ_20  and  NH2_22 
REMARK       I    between atoms: CZ_20  and  NH1_21 
REMARK   11  A    between atoms: N_29  and  CA_30 
REMARK   12  A    between atoms: CA_30  and  CB_33 
REMARK   13  A    between atoms: CA_30  and  C_31 
REMARK       I    between atoms: C_31  and  N_38 
REMARK   14  A    between atoms: CB_33  and  CG1_34 
REMARK   15  A    between atoms: N_38  and  CA_39 
REMARK   16  A    between atoms: CA_39  and  CB_42 
REMARK   17  A    between atoms: CA_39  and  C_40 
REMARK       I    between atoms: C_40  and  N_51 
REMARK   18  A    between atoms: CB_42  and  CG_43 
REMARK   19  A    between atoms: CG_43  and  CD_44 
REMARK   20  A    between atoms: CD_44  and  CE_45 
REMARK   21  A    between atoms: CE_45  and  NZ_46 
REMARK   22  A    between atoms: N_51  and  CA_52 
REMARK   23  A    between atoms: CA_52  and  C_53 
REMARK   24  A    between atoms: CA_52  and  CB_55 
REMARK       I    between atoms: C_53  and  N_60 
REMARK   25  A    between atoms: CB_55  and  CG1_56 
REMARK   26  A    between atoms: N_60  and  CA_61 
REMARK   27  A    between atoms: CA_61  and  C_62 
REMARK   28  A    between atoms: CA_61  and  CB_64 
REMARK       I    between atoms: C_62  and  N_77 
REMARK   29  A    between atoms: CB_64  and  CG_65 
REMARK   30  A    between atoms: CG_65  and  CD_66 
REMARK   31  A    between atoms: CD_66  and  NE_67 
REMARK       I    between atoms: NE_67  and  CZ_68 
REMARK       I    between atoms: CZ_68  and  NH1_69 
REMARK   32  A    between atoms: N_77  and  CA_78 
REMARK   33  A    between atoms: CA_78  and  C_79 
REMARK   34  A    between atoms: CA_78  and  CB_81 
REMARK       I    between atoms: C_79  and  N_86 
REMARK   35  A    between atoms: CB_81  and  CG1_82 
REMARK   36  A    between atoms: N_86  and  CA_87 
REMARK   37  A    between atoms: CA_87  and  CB_90 
REMARK   38  A    between atoms: CA_87  and  C_88 
REMARK   39  A    between atoms: CB_90  and  CG_91 
REMARK   40  A    between atoms: CG_91  and  CD_92 
REMARK   41  A    between atoms: CD_92  and  CE_93 
REMARK   42  A    between atoms: CE_93  and  NZ_94 
ROOT
ATOM      1  N   ILE     1      35.633  44.446  32.142  1.00  0.00    -0.058 N 
ATOM      2  H1  ILE     1      34.730  44.190  31.789  1.00 99.99     0.276 HD
ATOM      3  H2  ILE     1      35.548  44.645  33.107  1.00 99.99     0.276 HD
ATOM      4  H3  ILE     1      35.921  45.296  31.727  1.00 99.99     0.276 HD
ENDROOT
BRANCH   1   5
ATOM      5  CA  ILE     1      36.561  43.317  31.878  1.00  0.00     0.255 C 
BRANCH   5   6
ATOM      6  C   ILE     1      35.779  42.203  31.129  1.00  0.00     0.259 C 
ATOM      7  O   ILE     1      34.571  42.045  31.361  1.00  0.00    -0.271 OA
ATOM      8  N   ARG     2      36.420  41.480  30.223  1.00  0.00    -0.338 N 
ATOM      9  H   ARG     2      37.387  41.616  29.994  1.00 99.99     0.164 HD
BRANCH   8  10
ATOM     10  CA  ARG     2      35.777  40.369  29.482  1.00  0.00     0.159 C 
BRANCH  10  11
ATOM     11  CB  ARG     2      36.314  40.346  28.046  1.00  0.00     0.034 C 
BRANCH  11  12
ATOM     12  CG  ARG     2      35.625  39.296  27.167  1.00  0.00     0.027 C 
BRANCH  12  13
ATOM     13  CD  ARG     2      36.340  39.169  25.822  1.00  0.00     0.116 C 
BRANCH  13  14
ATOM     14  NE  ARG     2      35.697  38.111  25.021  1.00  0.00    -0.212 N 
ATOM     15  HE  ARG     2      34.891  37.697  25.437  1.00 99.99     0.178 HD
ATOM     16  CZ  ARG     2      36.095  37.670  23.824  1.00  0.00     0.666 C 
ATOM     17  NH2 ARG     2      35.415  36.709  23.210  1.00  0.00    -0.235 N 
ATOM     18  NH1 ARG     2      37.164  38.160  23.211  1.00  0.00    -0.235 N 
ATOM     19 1HH2 ARG     2      35.722  36.386  22.317  1.00 99.99     0.174 HD
ATOM     20 2HH2 ARG     2      34.607  36.309  23.635  1.00 99.99     0.174 HD
ATOM     21 2HH1 ARG     2      37.688  38.881  23.661  1.00 99.99     0.174 HD
ATOM     22 1HH1 ARG     2      37.442  37.813  22.318  1.00 99.99     0.174 HD
ENDBRANCH  13  14
ENDBRANCH  12  13
ENDBRANCH  11  12
ENDBRANCH  10  11
BRANCH  10  23
ATOM     23  C   ARG     2      36.044  39.041  30.209  1.00  0.00     0.251 C 
ATOM     24  N   ILE     3      35.050  38.592  30.967  1.00  0.00    -0.338 N 
ATOM     25  H   ILE     3      34.175  39.073  31.036  1.00 99.99     0.164 HD
ATOM     26  O   ARG     2      37.160  38.516  30.179  1.00  0.00    -0.271 OA
BRANCH  24  27
ATOM     27  CA  ILE     3      35.157  37.353  31.768  1.00  0.00     0.159 C 
BRANCH  27  28
ATOM     28  CB  ILE     3      34.521  37.518  33.165  1.00  0.00     0.029 C 
ATOM     29  CG2 ILE     3      35.396  38.457  34.010  1.00  0.00     0.002 C 
BRANCH  28  30
ATOM     30  CG1 ILE     3      33.046  37.959  33.098  1.00  0.00     0.002 C 
ATOM     31  CD  ILE     3      32.292  37.842  34.429  1.00  0.00     0.000 C 
ENDBRANCH  28  30
ENDBRANCH  27  28
BRANCH  27  32
ATOM     32  C   ILE     3      34.612  36.105  31.055  1.00  0.00     0.251 C 
ATOM     33  O   ILE     3      33.755  36.210  30.168  1.00  0.00    -0.271 OA
ATOM     34  N   LYS     4      35.242  34.977  31.349  1.00  0.00    -0.338 N 
ATOM     35  H   LYS     4      36.138  34.995  31.797  1.00 99.99     0.164 HD
BRANCH  34  36
ATOM     36  CA  LYS     4      34.786  33.623  30.952  1.00  0.00     0.159 C 
BRANCH  36  37
ATOM     37  CB  LYS     4      35.269  33.300  29.526  1.00  0.00     0.032 C 
BRANCH  37  38
ATOM     38  CG  LYS     4      34.615  32.027  28.975  1.00  0.00     0.004 C 
BRANCH  38  39
ATOM     39  CD  LYS     4      35.218  31.599  27.636  1.00  0.00     0.032 C 
BRANCH  39  40
ATOM     40  CE  LYS     4      34.658  30.236  27.218  1.00  0.00     0.206 C 
BRANCH  40  41
ATOM     41  NZ  LYS     4      35.239  29.775  25.949  1.00  0.00    -0.064 N 
ATOM     42  HZ1 LYS     4      34.863  28.878  25.718  1.00 99.99     0.275 HD
ATOM     43  HZ3 LYS     4      36.233  29.705  26.041  1.00 99.99     0.275 HD
ATOM     44  HZ2 LYS     4      35.016  30.426  25.225  1.00 99.99     0.275 HD
ENDBRANCH  40  41
ENDBRANCH  39  40
ENDBRANCH  38  39
ENDBRANCH  37  38
ENDBRANCH  36  37
BRANCH  36  45
ATOM     45  C   LYS     4      35.275  32.591  31.991  1.00  0.00     0.251 C 
ATOM     46  O   LYS     4      36.168  31.776  31.753  1.00  0.00    -0.271 OA
ATOM     47  N   ILE     5      34.775  32.774  33.209  1.00  0.00    -0.338 N 
ATOM     48  H   ILE     5      34.067  33.457  33.380  1.00 99.99     0.164 HD
BRANCH  47  49
ATOM     49  CA  ILE     5      35.116  31.951  34.394  1.00  0.00     0.159 C 
BRANCH  49  50
ATOM     50  C   ILE     5      33.855  31.436  35.107  1.00  0.00     0.251 C 
ATOM     51  N   ARG     6      34.023  30.431  35.957  1.00  0.00    -0.338 N 
ATOM     52  H   ARG     6      34.913  29.993  36.095  1.00 99.99     0.164 HD
ATOM     53  O   ILE     5      32.758  31.963  34.887  1.00  0.00    -0.271 OA
BRANCH  51  54
ATOM     54  CA  ARG     6      32.935  29.877  36.790  1.00  0.00     0.159 C 
BRANCH  54  55
ATOM     55  C   ARG     6      33.033  30.409  38.224  1.00  0.00     0.251 C 
ATOM     56  N   ILE     7      32.175  31.372  38.510  1.00  0.00    -0.338 N 
ATOM     57  H   ILE     7      31.499  31.679  37.837  1.00 99.99     0.164 HD
ATOM     58  O   ARG     6      33.969  30.079  38.965  1.00  0.00    -0.271 OA
BRANCH  56  59
ATOM     59  CA  ILE     7      32.083  32.055  39.818  1.00  0.00     0.159 C 
BRANCH  59  60
ATOM     60  C   ILE     7      30.674  31.888  40.433  1.00  0.00     0.251 C 
ATOM     61  O   ILE     7      29.789  31.296  39.802  1.00  0.00    -0.271 OA
ATOM     62  N   LYS     8      30.554  32.231  41.712  1.00  0.00    -0.336 N 
ATOM     63  H   LYS     8      31.365  32.326  42.286  1.00 99.99     0.164 HD
BRANCH  62  64
ATOM     64  CA  LYS     8      29.266  32.444  42.428  1.00  0.00     0.168 C 
BRANCH  64  65
ATOM     65  CB  LYS     8      29.062  31.388  43.522  1.00  0.00     0.033 C 
BRANCH  65  66
ATOM     66  CG  LYS     8      29.351  29.882  43.371  1.00  0.00     0.004 C 
BRANCH  66  67
ATOM     67  CD  LYS     8      29.289  29.311  44.790  1.00  0.00     0.032 C 
BRANCH  67  68
ATOM     68  CE  LYS     8      29.482  27.795  44.856  1.00  0.00     0.206 C 
BRANCH  68  69
ATOM     69  NZ  LYS     8      29.452  27.344  46.256  1.00  0.00    -0.064 N 
ATOM     70  HZ1 LYS     8      29.562  26.351  46.287  1.00 99.99     0.275 HD
ATOM     71  HZ2 LYS     8      30.198  27.779  46.761  1.00 99.99     0.275 HD
ATOM     72  HZ3 LYS     8      28.578  27.597  46.672  1.00 99.99     0.275 HD
ENDBRANCH  68  69
ENDBRANCH  67  68
ENDBRANCH  66  67
ENDBRANCH  65  66
ENDBRANCH  64  65
BRANCH  64  73
ATOM     73  C   LYS     8      29.269  33.856  43.131  1.00  0.00     0.206 C 
ATOM     74  O   LYS     8      29.560  33.860  44.346  1.00 99.99    -0.646 OA
ATOM     75  OXT LYS     8      29.136  34.930  42.492  1.00 99.99    -0.646 OA
ENDBRANCH  64  73
ENDBRANCH  62  64
ENDBRANCH  59  60
BRANCH  59  76
ATOM     76  CB  ILE     7      32.512  33.527  39.591  1.00  0.00     0.029 C 
ATOM     77  CG2 ILE     7      31.466  34.318  38.781  1.00  0.00     0.002 C 
BRANCH  76  78
ATOM     78  CG1 ILE     7      32.893  34.213  40.914  1.00  0.00     0.002 C 
ATOM     79  CD  ILE     7      33.615  35.558  40.748  1.00  0.00     0.000 C 
ENDBRANCH  76  78
ENDBRANCH  59  76
ENDBRANCH  56  59
ENDBRANCH  54  55
BRANCH  54  80
ATOM     80  CB  ARG     6      32.975  28.347  36.825  1.00  0.00     0.034 C 
BRANCH  80  81
ATOM     81  CG  ARG     6      32.591  27.679  35.505  1.00  0.00     0.027 C 
BRANCH  81  82
ATOM     82  CD  ARG     6      32.640  26.168  35.713  1.00  0.00     0.116 C 
BRANCH  82  83
ATOM     83  NE  ARG     6      32.254  25.449  34.482  1.00  0.00    -0.212 N 
ATOM     84  HE  ARG     6      31.958  26.031  33.727  1.00 99.99     0.178 HD
ATOM     85  CZ  ARG     6      32.255  24.130  34.322  1.00  0.00     0.666 C 
ATOM     86  NH2 ARG     6      31.922  23.594  33.153  1.00  0.00    -0.235 N 
ATOM     87  NH1 ARG     6      32.613  23.298  35.298  1.00  0.00    -0.235 N 
ATOM     88 1HH2 ARG     6      31.930  22.604  33.048  1.00 99.99     0.174 HD
ATOM     89 2HH2 ARG     6      31.670  24.179  32.385  1.00 99.99     0.174 HD
ATOM     90 2HH1 ARG     6      32.887  23.686  36.178  1.00 99.99     0.174 HD
ATOM     91 1HH1 ARG     6      32.609  22.314  35.157  1.00 99.99     0.174 HD
ENDBRANCH  82  83
ENDBRANCH  81  82
ENDBRANCH  80  81
ENDBRANCH  54  80
ENDBRANCH  51  54
ENDBRANCH  49  50
BRANCH  49  92
ATOM     92  CB  ILE     5      36.033  32.717  35.375  1.00  0.00     0.029 C 
ATOM     93  CG2 ILE     5      37.452  32.811  34.790  1.00  0.00     0.002 C 
BRANCH  92  94
ATOM     94  CG1 ILE     5      35.449  34.082  35.790  1.00  0.00     0.002 C 
ATOM     95  CD  ILE     5      36.170  34.755  36.966  1.00  0.00     0.000 C 
ENDBRANCH  92  94
ENDBRANCH  49  92
ENDBRANCH  47  49
ENDBRANCH  36  45
ENDBRANCH  34  36
ENDBRANCH  27  32
ENDBRANCH  24  27
ENDBRANCH  10  23
ENDBRANCH   8  10
ENDBRANCH   5   6
BRANCH   5  96
ATOM     96  CB  ILE     1      37.164  42.797  33.211  1.00  0.00     0.037 C 
ATOM     97  CG2 ILE     1      38.114  41.605  32.985  1.00  0.00     0.002 C 
BRANCH  96  98
ATOM     98  CG1 ILE     1      37.898  43.923  33.963  1.00  0.00     0.002 C 
ATOM     99  CD  ILE     1      38.217  43.610  35.434  1.00  0.00     0.000 C 
ENDBRANCH  96  98
ENDBRANCH   5  96
ENDBRANCH   1   5
TORSDOF 42
