REMARK WARNING: 32 MAX_TORS EXCEEDED!!!
REMARK  42 active torsions:
REMARK  status: ('A' for Active; 'I' for Inactive)
REMARK    1  A    between atoms: N_1  and  CA_2 
REMARK    2  A    between atoms: CA_2  and  CB_5 
REMARK    3  A    between atoms: CA_2  and  C_3 
REMARK       I    between atoms: C_3  and  N_12 
REMARK    4  A    between atoms: CB_5  and  CG1_6 
REMARK    5  A    between atoms: N_12  and  CA_13 
REMARK    6  A    between atoms: CA_13  and  C_14 
REMARK    7  A    between atoms: CA_13  and  CB_16 
REMARK       I    between atoms: C_14  and  N_29 
REMARK    8  A    between atoms: CB_16  and  CG_17 
REMARK    9  A    between atoms: CG_17  and  CD_18 
REMARK   10  A    between atoms: CD_18  and  NE_19 
REMARK       I    between atoms: NE_19  and  CZ_20 
REMARK       I    between atoms: CZ_20  and  NH1_21 
REMARK       I    between atoms: CZ_20  and  NH2_22 
REMARK   11  A    between atoms: N_29  and  CA_30 
REMARK   12  A    between atoms: CA_30  and  C_31 
REMARK   13  A    between atoms: CA_30  and  CB_33 
REMARK       I    between atoms: C_31  and  N_38 
REMARK   14  A    between atoms: CB_33  and  CG1_34 
REMARK   15  A    between atoms: N_38  and  CA_39 
REMARK   16  A    between atoms: CA_39  and  C_40 
REMARK   17  A    between atoms: CA_39  and  CB_42 
REMARK       I    between atoms: C_40  and  N_51 
REMARK   18  A    between atoms: CB_42  and  CG_43 
REMARK   19  A    between atoms: CG_43  and  CD_44 
REMARK   20  A    between atoms: CD_44  and  CE_45 
REMARK   21  A    between atoms: CE_45  and  NZ_46 
REMARK   22  A    between atoms: N_51  and  CA_52 
REMARK   23  A    between atoms: CA_52  and  CB_55 
REMARK   24  A    between atoms: CA_52  and  C_53 
REMARK       I    between atoms: C_53  and  N_60 
REMARK   25  A    between atoms: CB_55  and  CG1_56 
REMARK   26  A    between atoms: N_60  and  CA_61 
REMARK   27  A    between atoms: CA_61  and  CB_64 
REMARK   28  A    between atoms: CA_61  and  C_62 
REMARK       I    between atoms: C_62  and  N_77 
REMARK   29  A    between atoms: CB_64  and  CG_65 
REMARK   30  A    between atoms: CG_65  and  CD_66 
REMARK   31  A    between atoms: CD_66  and  NE_67 
REMARK       I    between atoms: NE_67  and  CZ_68 
REMARK       I    between atoms: CZ_68  and  NH1_69 
REMARK   32  A    between atoms: N_77  and  CA_78 
REMARK   33  A    between atoms: CA_78  and  C_79 
REMARK   34  A    between atoms: CA_78  and  CB_81 
REMARK       I    between atoms: C_79  and  N_86 
REMARK   35  A    between atoms: CB_81  and  CG1_82 
REMARK   36  A    between atoms: N_86  and  CA_87 
REMARK   37  A    between atoms: CA_87  and  CB_90 
REMARK   38  A    between atoms: CA_87  and  C_88 
REMARK   39  A    between atoms: CB_90  and  CG_91 
REMARK   40  A    between atoms: CG_91  and  CD_92 
REMARK   41  A    between atoms: CD_92  and  CE_93 
REMARK   42  A    between atoms: CE_93  and  NZ_94 
ROOT
ATOM      1  N   ILE     1      29.113  41.837  29.111  1.00  0.00    -0.058 N 
ATOM      2  H1  ILE     1      29.956  41.745  29.645  1.00 99.99     0.276 HD
ATOM      3  H2  ILE     1      29.350  41.871  28.149  1.00 99.99     0.276 HD
ATOM      4  H3  ILE     1      28.698  42.714  29.301  1.00 99.99     0.276 HD
ENDROOT
BRANCH   1   5
ATOM      5  CA  ILE     1      28.235  40.682  29.446  1.00  0.00     0.255 C 
BRANCH   5   6
ATOM      6  CB  ILE     1      27.913  39.887  28.153  1.00  0.00     0.037 C 
ATOM      7  CG2 ILE     1      27.000  38.680  28.437  1.00  0.00     0.002 C 
BRANCH   6   8
ATOM      8  CG1 ILE     1      27.262  40.796  27.091  1.00  0.00     0.002 C 
ATOM      9  CD  ILE     1      27.262  40.219  25.667  1.00  0.00     0.000 C 
ENDBRANCH   6   8
ENDBRANCH   5   6
BRANCH   5  10
ATOM     10  C   ILE     1      28.955  39.802  30.510  1.00  0.00     0.259 C 
ATOM     11  N   ARG     2      28.222  39.141  31.415  1.00  0.00    -0.338 N 
ATOM     12  H   ARG     2      27.230  39.237  31.491  1.00 99.99     0.164 HD
ATOM     13  O   ILE     1      30.185  39.819  30.567  1.00  0.00    -0.271 OA
BRANCH  11  14
ATOM     14  CA  ARG     2      28.837  38.240  32.421  1.00  0.00     0.159 C 
BRANCH  14  15
ATOM     15  C   ARG     2      28.230  36.826  32.451  1.00  0.00     0.251 C 
ATOM     16  O   ARG     2      27.168  36.600  33.029  1.00  0.00    -0.271 OA
ATOM     17  N   ILE     3      28.851  35.925  31.693  1.00  0.00    -0.338 N 
ATOM     18  H   ILE     3      29.608  36.179  31.094  1.00 99.99     0.164 HD
BRANCH  17  19
ATOM     19  CA  ILE     3      28.483  34.488  31.666  1.00  0.00     0.159 C 
BRANCH  19  20
ATOM     20  C   ILE     3      28.770  33.752  32.994  1.00  0.00     0.251 C 
ATOM     21  N   LYS     4      28.233  32.536  33.101  1.00  0.00    -0.338 N 
ATOM     22  H   LYS     4      27.578  32.206  32.427  1.00 99.99     0.164 HD
ATOM     23  O   ILE     3      29.383  34.308  33.903  1.00  0.00    -0.271 OA
BRANCH  21  24
ATOM     24  CA  LYS     4      28.392  31.681  34.302  1.00  0.00     0.159 C 
BRANCH  24  25
ATOM     25  C   LYS     4      29.191  30.377  34.091  1.00  0.00     0.251 C 
ATOM     26  N   ILE     5      29.166  29.863  32.862  1.00  0.00    -0.338 N 
ATOM     27  H   ILE     5      28.724  30.342  32.111  1.00 99.99     0.164 HD
ATOM     28  O   LYS     4      29.720  29.810  35.042  1.00  0.00    -0.271 OA
BRANCH  26  29
ATOM     29  CA  ILE     5      29.819  28.594  32.459  1.00  0.00     0.159 C 
BRANCH  29  30
ATOM     30  CB  ILE     5      29.234  28.080  31.126  1.00  0.00     0.029 C 
ATOM     31  CG2 ILE     5      27.782  27.627  31.344  1.00  0.00     0.002 C 
BRANCH  30  32
ATOM     32  CG1 ILE     5      29.387  29.106  29.989  1.00  0.00     0.002 C 
ATOM     33  CD  ILE     5      29.150  28.528  28.588  1.00  0.00     0.000 C 
ENDBRANCH  30  32
ENDBRANCH  29  30
BRANCH  29  34
ATOM     34  C   ILE     5      31.359  28.655  32.389  1.00  0.00     0.251 C 
ATOM     35  N   ARG     6      31.959  27.476  32.222  1.00  0.00    -0.338 N 
ATOM     36  H   ARG     6      31.435  26.633  32.125  1.00 99.99     0.164 HD
ATOM     37  O   ILE     5      31.955  29.730  32.376  1.00  0.00    -0.271 OA
BRANCH  35  38
ATOM     38  CA  ARG     6      33.419  27.300  32.075  1.00  0.00     0.159 C 
BRANCH  38  39
ATOM     39  CB  ARG     6      33.837  25.905  32.548  1.00  0.00     0.034 C 
BRANCH  39  40
ATOM     40  CG  ARG     6      33.531  25.628  34.021  1.00  0.00     0.027 C 
BRANCH  40  41
ATOM     41  CD  ARG     6      33.833  24.160  34.315  1.00  0.00     0.116 C 
BRANCH  41  42
ATOM     42  NE  ARG     6      33.511  23.843  35.716  1.00  0.00    -0.212 N 
ATOM     43  CZ  ARG     6      33.514  22.625  36.264  1.00  0.00     0.666 C 
ATOM     44  NH2 ARG     6      33.232  22.472  37.550  1.00  0.00    -0.235 N 
ATOM     45  NH1 ARG     6      33.805  21.538  35.560  1.00  0.00    -0.235 N 
ATOM     46 2HH2 ARG     6      33.024  23.262  38.122  1.00 99.99     0.174 HD
ATOM     47 1HH2 ARG     6      33.236  21.555  37.945  1.00 99.99     0.174 HD
ATOM     48 1HH1 ARG     6      33.798  20.638  35.989  1.00 99.99     0.174 HD
ATOM     49 2HH1 ARG     6      34.035  21.638  34.594  1.00 99.99     0.174 HD
ATOM     50  HE  ARG     6      33.282  24.627  36.289  1.00 99.99     0.178 HD
ENDBRANCH  41  42
ENDBRANCH  40  41
ENDBRANCH  39  40
ENDBRANCH  38  39
BRANCH  38  51
ATOM     51  C   ARG     6      33.827  27.436  30.600  1.00  0.00     0.251 C 
ATOM     52  O   ARG     6      33.276  26.773  29.722  1.00  0.00    -0.271 OA
ATOM     53  N   ILE     7      34.811  28.297  30.377  1.00  0.00    -0.338 N 
ATOM     54  H   ILE     7      35.263  28.778  31.128  1.00 99.99     0.164 HD
BRANCH  53  55
ATOM     55  CA  ILE     7      35.374  28.594  29.045  1.00  0.00     0.159 C 
BRANCH  55  56
ATOM     56  C   ILE     7      36.918  28.629  29.134  1.00  0.00     0.251 C 
ATOM     57  N   LYS     8      37.567  28.644  27.975  1.00  0.00    -0.336 N 
ATOM     58  H   LYS     8      37.098  28.469  27.110  1.00 99.99     0.164 HD
ATOM     59  O   ILE     7      37.488  28.488  30.214  1.00  0.00    -0.271 OA
BRANCH  57  60
ATOM     60  CA  LYS     8      39.003  28.982  27.848  1.00  0.00     0.168 C 
BRANCH  60  61
ATOM     61  CB  LYS     8      39.781  27.883  27.118  1.00  0.00     0.033 C 
BRANCH  61  62
ATOM     62  CG  LYS     8      39.768  26.493  27.753  1.00  0.00     0.004 C 
BRANCH  62  63
ATOM     63  CD  LYS     8      40.543  25.579  26.805  1.00  0.00     0.032 C 
BRANCH  63  64
ATOM     64  CE  LYS     8      40.601  24.121  27.255  1.00  0.00     0.206 C 
BRANCH  64  65
ATOM     65  NZ  LYS     8      41.339  23.349  26.246  1.00  0.00    -0.064 N 
ATOM     66  HZ3 LYS     8      42.263  23.721  26.157  1.00 99.99     0.275 HD
ATOM     67  HZ2 LYS     8      40.869  23.419  25.367  1.00 99.99     0.275 HD
ATOM     68  HZ1 LYS     8      41.390  22.389  26.522  1.00 99.99     0.275 HD
ENDBRANCH  64  65
ENDBRANCH  63  64
ENDBRANCH  62  63
ENDBRANCH  61  62
ENDBRANCH  60  61
BRANCH  60  69
ATOM     69  C   LYS     8      39.119  30.243  26.974  1.00  0.00     0.206 C 
ATOM     70  OXT LYS     8      38.413  30.233  25.939  1.00 99.99    -0.646 OA
ATOM     71  O   LYS     8      39.771  31.213  27.415  1.00 99.99    -0.646 OA
ENDBRANCH  60  69
ENDBRANCH  57  60
ENDBRANCH  55  56
BRANCH  55  72
ATOM     72  CB  ILE     7      34.716  29.906  28.544  1.00  0.00     0.029 C 
ATOM     73  CG2 ILE     7      35.178  31.136  29.350  1.00  0.00     0.002 C 
BRANCH  72  74
ATOM     74  CG1 ILE     7      34.886  30.082  27.026  1.00  0.00     0.002 C 
ATOM     75  CD  ILE     7      33.999  31.174  26.408  1.00  0.00     0.000 C 
ENDBRANCH  72  74
ENDBRANCH  55  72
ENDBRANCH  53  55
ENDBRANCH  38  51
ENDBRANCH  35  38
ENDBRANCH  29  34
ENDBRANCH  26  29
ENDBRANCH  24  25
BRANCH  24  76
ATOM     76  CB  LYS     4      27.017  31.337  34.898  1.00  0.00     0.032 C 
BRANCH  76  77
ATOM     77  CG  LYS     4      26.209  32.551  35.376  1.00  0.00     0.004 C 
BRANCH  77  78
ATOM     78  CD  LYS     4      26.885  33.304  36.525  1.00  0.00     0.032 C 
BRANCH  78  79
ATOM     79  CE  LYS     4      26.040  34.503  36.957  1.00  0.00     0.206 C 
BRANCH  79  80
ATOM     80  NZ  LYS     4      26.700  35.242  38.042  1.00  0.00    -0.064 N 
ATOM     81  HZ1 LYS     4      26.130  36.017  38.314  1.00 99.99     0.275 HD
ATOM     82  HZ2 LYS     4      26.839  34.635  38.825  1.00 99.99     0.275 HD
ATOM     83  HZ3 LYS     4      27.585  35.577  37.719  1.00 99.99     0.275 HD
ENDBRANCH  79  80
ENDBRANCH  78  79
ENDBRANCH  77  78
ENDBRANCH  76  77
ENDBRANCH  24  76
ENDBRANCH  21  24
ENDBRANCH  19  20
BRANCH  19  84
ATOM     84  CB  ILE     3      29.108  33.757  30.460  1.00  0.00     0.029 C 
ATOM     85  CG2 ILE     3      28.425  34.242  29.171  1.00  0.00     0.002 C 
BRANCH  84  86
ATOM     86  CG1 ILE     3      30.643  33.879  30.421  1.00  0.00     0.002 C 
ATOM     87  CD  ILE     3      31.323  32.927  29.427  1.00  0.00     0.000 C 
ENDBRANCH  84  86
ENDBRANCH  19  84
ENDBRANCH  17  19
ENDBRANCH  14  15
BRANCH  14  88
ATOM     88  CB  ARG     2      28.795  38.846  33.835  1.00  0.00     0.034 C 
BRANCH  88  89
ATOM     89  CG  ARG     2      29.738  40.037  34.061  1.00  0.00     0.027 C 
BRANCH  89  90
ATOM     90  CD  ARG     2      31.231  39.680  33.997  1.00  0.00     0.116 C 
BRANCH  90  91
ATOM     91  NE  ARG     2      31.658  38.772  35.083  1.00  0.00    -0.212 N 
ATOM     92  CZ  ARG     2      31.920  39.088  36.357  1.00  0.00     0.666 C 
ATOM     93  NH1 ARG     2      31.802  40.324  36.824  1.00  0.00    -0.235 N 
ATOM     94  NH2 ARG     2      32.366  38.159  37.193  1.00  0.00    -0.235 N 
ATOM     95 2HH1 ARG     2      31.504  41.049  36.207  1.00 99.99     0.174 HD
ATOM     96 1HH1 ARG     2      32.007  40.523  37.780  1.00 99.99     0.174 HD
ATOM     97 1HH2 ARG     2      32.560  38.405  38.141  1.00 99.99     0.174 HD
ATOM     98 2HH2 ARG     2      32.510  37.222  36.883  1.00 99.99     0.174 HD
ATOM     99  HE  ARG     2      31.767  37.819  34.810  1.00 99.99     0.178 HD
ENDBRANCH  90  91
ENDBRANCH  89  90
ENDBRANCH  88  89
ENDBRANCH  14  88
ENDBRANCH  11  14
ENDBRANCH   5  10
ENDBRANCH   1   5
TORSDOF 42
