REMARK WARNING: 32 MAX_TORS EXCEEDED!!!
REMARK  42 active torsions:
REMARK  status: ('A' for Active; 'I' for Inactive)
REMARK    1  A    between atoms: N_1  and  CA_2 
REMARK    2  A    between atoms: CA_2  and  CB_5 
REMARK    3  A    between atoms: CA_2  and  C_3 
REMARK       I    between atoms: C_3  and  N_12 
REMARK    4  A    between atoms: CB_5  and  CG1_6 
REMARK    5  A    between atoms: N_12  and  CA_13 
REMARK    6  A    between atoms: CA_13  and  C_14 
REMARK    7  A    between atoms: CA_13  and  CB_16 
REMARK       I    between atoms: C_14  and  N_21 
REMARK    8  A    between atoms: CB_16  and  CG1_17 
REMARK    9  A    between atoms: N_21  and  CA_22 
REMARK   10  A    between atoms: CA_22  and  C_23 
REMARK   11  A    between atoms: CA_22  and  CB_25 
REMARK       I    between atoms: C_23  and  N_38 
REMARK   12  A    between atoms: CB_25  and  CG_26 
REMARK   13  A    between atoms: CG_26  and  CD_27 
REMARK   14  A    between atoms: CD_27  and  NE_28 
REMARK       I    between atoms: NE_28  and  CZ_29 
REMARK       I    between atoms: CZ_29  and  NH2_31 
REMARK       I    between atoms: CZ_29  and  NH1_30 
REMARK   15  A    between atoms: N_38  and  CA_39 
REMARK   16  A    between atoms: CA_39  and  C_40 
REMARK   17  A    between atoms: CA_39  and  CB_42 
REMARK       I    between atoms: C_40  and  N_51 
REMARK   18  A    between atoms: CB_42  and  CG_43 
REMARK   19  A    between atoms: CG_43  and  CD_44 
REMARK   20  A    between atoms: CD_44  and  CE_45 
REMARK   21  A    between atoms: CE_45  and  NZ_46 
REMARK   22  A    between atoms: N_51  and  CA_52 
REMARK   23  A    between atoms: CA_52  and  CB_55 
REMARK   24  A    between atoms: CA_52  and  C_53 
REMARK       I    between atoms: C_53  and  N_60 
REMARK   25  A    between atoms: CB_55  and  CG1_56 
REMARK   26  A    between atoms: N_60  and  CA_61 
REMARK   27  A    between atoms: CA_61  and  C_62 
REMARK   28  A    between atoms: CA_61  and  CB_64 
REMARK       I    between atoms: C_62  and  N_69 
REMARK   29  A    between atoms: CB_64  and  CG1_65 
REMARK   30  A    between atoms: N_69  and  CA_70 
REMARK   31  A    between atoms: CA_70  and  C_71 
REMARK   32  A    between atoms: CA_70  and  CB_73 
REMARK       I    between atoms: C_71  and  N_86 
REMARK   33  A    between atoms: CB_73  and  CG_74 
REMARK   34  A    between atoms: CG_74  and  CD_75 
REMARK   35  A    between atoms: CD_75  and  NE_76 
REMARK       I    between atoms: NE_76  and  CZ_77 
REMARK       I    between atoms: CZ_77  and  NH1_78 
REMARK   36  A    between atoms: N_86  and  CA_87 
REMARK   37  A    between atoms: CA_87  and  C_88 
REMARK   38  A    between atoms: CA_87  and  CB_90 
REMARK   39  A    between atoms: CB_90  and  CG_91 
REMARK   40  A    between atoms: CG_91  and  CD_92 
REMARK   41  A    between atoms: CD_92  and  CE_93 
REMARK   42  A    between atoms: CE_93  and  NZ_94 
ROOT
ATOM      1  N   ILE     1      25.401  26.659  33.574  1.00  0.00    -0.058 N 
ATOM      2  H1  ILE     1      26.094  27.381  33.563  1.00 99.99     0.276 HD
ATOM      3  H2  ILE     1      24.825  26.754  34.367  1.00 99.99     0.276 HD
ATOM      4  H3  ILE     1      25.855  25.785  33.685  1.00 99.99     0.276 HD
ENDROOT
BRANCH   1   5
ATOM      5  CA  ILE     1      24.623  26.700  32.317  1.00  0.00     0.255 C 
BRANCH   5   6
ATOM      6  CB  ILE     1      23.102  26.659  32.619  1.00  0.00     0.037 C 
ATOM      7  CG2 ILE     1      22.272  26.688  31.327  1.00  0.00     0.002 C 
BRANCH   6   8
ATOM      8  CG1 ILE     1      22.773  25.371  33.400  1.00  0.00     0.002 C 
ATOM      9  CD  ILE     1      21.388  25.330  34.063  1.00  0.00     0.000 C 
ENDBRANCH   6   8
ENDBRANCH   5   6
BRANCH   5  10
ATOM     10  C   ILE     1      25.166  27.873  31.457  1.00  0.00     0.259 C 
ATOM     11  O   ILE     1      26.256  27.698  30.922  1.00  0.00    -0.271 OA
ATOM     12  N   ILE     2      24.590  29.079  31.553  1.00  0.00    -0.338 N 
ATOM     13  H   ILE     2      23.720  29.177  32.036  1.00 99.99     0.164 HD
BRANCH  12  14
ATOM     14  CA  ILE     2      25.041  30.362  30.936  1.00  0.00     0.159 C 
BRANCH  14  15
ATOM     15  C   ILE     2      26.323  30.310  30.057  1.00  0.00     0.251 C 
ATOM     16  N   ARG     3      27.508  30.257  30.680  1.00  0.00    -0.338 N 
ATOM     17  H   ARG     3      27.581  30.447  31.657  1.00 99.99     0.164 HD
ATOM     18  O   ILE     2      26.204  30.341  28.833  1.00  0.00    -0.271 OA
BRANCH  16  19
ATOM     19  CA  ARG     3      28.831  30.082  30.023  1.00  0.00     0.159 C 
BRANCH  19  20
ATOM     20  C   ARG     3      28.966  29.040  28.892  1.00  0.00     0.251 C 
ATOM     21  O   ARG     3      29.991  29.014  28.215  1.00  0.00    -0.271 OA
ATOM     22  N   LYS     4      28.077  28.048  28.861  1.00  0.00    -0.338 N 
ATOM     23  H   LYS     4      27.470  27.856  29.635  1.00 99.99     0.164 HD
BRANCH  22  24
ATOM     24  CA  LYS     4      27.949  27.146  27.698  1.00  0.00     0.159 C 
BRANCH  24  25
ATOM     25  C   LYS     4      27.235  27.838  26.521  1.00  0.00     0.251 C 
ATOM     26  N   ILE     5      25.995  28.270  26.758  1.00  0.00    -0.338 N 
ATOM     27  H   ILE     5      25.608  28.202  27.673  1.00 99.99     0.164 HD
ATOM     28  O   LYS     4      27.919  28.292  25.611  1.00  0.00    -0.271 OA
BRANCH  26  29
ATOM     29  CA  ILE     5      25.079  28.901  25.770  1.00  0.00     0.159 C 
BRANCH  29  30
ATOM     30  CB  ILE     5      23.747  29.268  26.471  1.00  0.00     0.029 C 
ATOM     31  CG2 ILE     5      22.725  29.848  25.475  1.00  0.00     0.002 C 
BRANCH  30  32
ATOM     32  CG1 ILE     5      23.145  28.042  27.183  1.00  0.00     0.002 C 
ATOM     33  CD  ILE     5      22.001  28.377  28.150  1.00  0.00     0.000 C 
ENDBRANCH  30  32
ENDBRANCH  29  30
BRANCH  29  34
ATOM     34  C   ILE     5      25.685  30.119  25.026  1.00  0.00     0.251 C 
ATOM     35  O   ILE     5      25.428  30.300  23.839  1.00  0.00    -0.271 OA
ATOM     36  N   ILE     6      26.471  30.936  25.729  1.00  0.00    -0.338 N 
ATOM     37  H   ILE     6      26.550  30.845  26.722  1.00 99.99     0.164 HD
BRANCH  36  38
ATOM     38  CA  ILE     6      27.202  32.096  25.152  1.00  0.00     0.159 C 
BRANCH  38  39
ATOM     39  C   ILE     6      28.304  31.699  24.131  1.00  0.00     0.251 C 
ATOM     40  N   ARG     7      28.808  30.471  24.239  1.00  0.00    -0.338 N 
ATOM     41  H   ARG     7      28.427  29.813  24.893  1.00 99.99     0.164 HD
ATOM     42  O   ILE     6      28.683  32.496  23.276  1.00  0.00    -0.271 OA
BRANCH  40  43
ATOM     43  CA  ARG     7      29.968  29.955  23.472  1.00  0.00     0.159 C 
BRANCH  43  44
ATOM     44  C   ARG     7      29.682  28.777  22.518  1.00  0.00     0.251 C 
ATOM     45  O   ARG     7      30.499  28.465  21.656  1.00  0.00    -0.271 OA
ATOM     46  N   LYS     8      28.625  28.032  22.836  1.00  0.00    -0.336 N 
ATOM     47  H   LYS     8      28.031  28.322  23.587  1.00 99.99     0.164 HD
BRANCH  46  48
ATOM     48  CA  LYS     8      28.181  26.776  22.182  1.00  0.00     0.168 C 
BRANCH  48  49
ATOM     49  C   LYS     8      26.713  26.521  22.557  1.00  0.00     0.206 C 
ATOM     50  OXT LYS     8      26.458  26.587  23.782  1.00 99.99    -0.646 OA
ATOM     51  O   LYS     8      25.901  26.244  21.648  1.00 99.99    -0.646 OA
ENDBRANCH  48  49
BRANCH  48  52
ATOM     52  CB  LYS     8      28.902  25.542  22.740  1.00  0.00     0.033 C 
BRANCH  52  53
ATOM     53  CG  LYS     8      30.398  25.384  22.493  1.00  0.00     0.004 C 
BRANCH  53  54
ATOM     54  CD  LYS     8      30.759  24.003  23.033  1.00  0.00     0.032 C 
BRANCH  54  55
ATOM     55  CE  LYS     8      32.213  23.625  22.772  1.00  0.00     0.206 C 
BRANCH  55  56
ATOM     56  NZ  LYS     8      32.370  22.189  23.033  1.00  0.00    -0.064 N 
ATOM     57  HZ3 LYS     8      31.770  21.684  22.412  1.00 99.99     0.275 HD
ATOM     58  HZ2 LYS     8      32.112  21.991  23.979  1.00 99.99     0.275 HD
ATOM     59  HZ1 LYS     8      33.319  21.923  22.875  1.00 99.99     0.275 HD
ENDBRANCH  55  56
ENDBRANCH  54  55
ENDBRANCH  53  54
ENDBRANCH  52  53
ENDBRANCH  48  52
ENDBRANCH  46  48
ENDBRANCH  43  44
BRANCH  43  60
ATOM     60  CB  ARG     7      31.036  29.470  24.454  1.00  0.00     0.034 C 
BRANCH  60  61
ATOM     61  CG  ARG     7      31.693  30.574  25.281  1.00  0.00     0.027 C 
BRANCH  61  62
ATOM     62  CD  ARG     7      32.711  29.909  26.204  1.00  0.00     0.116 C 
BRANCH  62  63
ATOM     63  NE  ARG     7      33.472  30.919  26.957  1.00  0.00    -0.212 N 
ATOM     64  CZ  ARG     7      34.439  30.661  27.841  1.00  0.00     0.666 C 
ATOM     65  NH1 ARG     7      34.816  29.419  28.120  1.00  0.00    -0.235 N 
ATOM     66  NH2 ARG     7      35.045  31.652  28.478  1.00  0.00    -0.235 N 
ATOM     67 2HH1 ARG     7      34.356  28.667  27.652  1.00 99.99     0.174 HD
ATOM     68 1HH1 ARG     7      35.541  29.240  28.781  1.00 99.99     0.174 HD
ATOM     69 2HH2 ARG     7      34.785  32.599  28.303  1.00 99.99     0.174 HD
ATOM     70 1HH2 ARG     7      35.767  31.442  29.134  1.00 99.99     0.174 HD
ATOM     71  HE  ARG     7      33.236  31.866  26.753  1.00 99.99     0.178 HD
ENDBRANCH  62  63
ENDBRANCH  61  62
ENDBRANCH  60  61
ENDBRANCH  43  60
ENDBRANCH  40  43
ENDBRANCH  38  39
BRANCH  38  72
ATOM     72  CB  ILE     6      27.737  32.979  26.309  1.00  0.00     0.029 C 
ATOM     73  CG2 ILE     6      28.570  34.175  25.808  1.00  0.00     0.002 C 
BRANCH  72  74
ATOM     74  CG1 ILE     6      26.569  33.474  27.183  1.00  0.00     0.002 C 
ATOM     75  CD  ILE     6      26.991  34.173  28.484  1.00  0.00     0.000 C 
ENDBRANCH  72  74
ENDBRANCH  38  72
ENDBRANCH  36  38
ENDBRANCH  29  34
ENDBRANCH  26  29
ENDBRANCH  24  25
BRANCH  24  76
ATOM     76  CB  LYS     4      27.338  25.787  28.075  1.00  0.00     0.032 C 
BRANCH  76  77
ATOM     77  CG  LYS     4      28.363  24.917  28.817  1.00  0.00     0.004 C 
BRANCH  77  78
ATOM     78  CD  LYS     4      27.881  23.478  29.045  1.00  0.00     0.032 C 
BRANCH  78  79
ATOM     79  CE  LYS     4      28.982  22.627  29.690  1.00  0.00     0.206 C 
BRANCH  79  80
ATOM     80  NZ  LYS     4      28.583  21.220  29.866  1.00  0.00    -0.064 N 
ATOM     81  HZ2 LYS     4      27.781  21.164  30.460  1.00 99.99     0.275 HD
ATOM     82  HZ3 LYS     4      28.369  20.815  28.977  1.00 99.99     0.275 HD
ATOM     83  HZ1 LYS     4      29.336  20.708  30.283  1.00 99.99     0.275 HD
ENDBRANCH  79  80
ENDBRANCH  78  79
ENDBRANCH  77  78
ENDBRANCH  76  77
ENDBRANCH  24  76
ENDBRANCH  22  24
ENDBRANCH  19  20
BRANCH  19  84
ATOM     84  CB  ARG     3      29.924  29.774  31.053  1.00  0.00     0.034 C 
BRANCH  84  85
ATOM     85  CG  ARG     3      30.252  30.954  31.972  1.00  0.00     0.027 C 
BRANCH  85  86
ATOM     86  CD  ARG     3      31.629  30.803  32.634  1.00  0.00     0.116 C 
BRANCH  86  87
ATOM     87  NE  ARG     3      31.743  29.564  33.429  1.00  0.00    -0.212 N 
ATOM     88  HE  ARG     3      32.014  28.756  32.909  1.00 99.99     0.178 HD
ATOM     89  CZ  ARG     3      31.580  29.449  34.751  1.00  0.00     0.666 C 
ATOM     90  NH2 ARG     3      31.742  28.276  35.348  1.00  0.00    -0.235 N 
ATOM     91  NH1 ARG     3      31.268  30.492  35.509  1.00  0.00    -0.235 N 
ATOM     92 2HH2 ARG     3      32.007  27.470  34.824  1.00 99.99     0.174 HD
ATOM     93 1HH2 ARG     3      31.617  28.210  36.336  1.00 99.99     0.174 HD
ATOM     94 2HH1 ARG     3      31.173  31.388  35.079  1.00 99.99     0.174 HD
ATOM     95 1HH1 ARG     3      31.151  30.387  36.494  1.00 99.99     0.174 HD
ENDBRANCH  86  87
ENDBRANCH  85  86
ENDBRANCH  84  85
ENDBRANCH  19  84
ENDBRANCH  16  19
ENDBRANCH  14  15
BRANCH  14  96
ATOM     96  CB  ILE     2      25.076  31.473  32.017  1.00  0.00     0.029 C 
ATOM     97  CG2 ILE     2      25.377  32.844  31.389  1.00  0.00     0.002 C 
BRANCH  96  98
ATOM     98  CG1 ILE     2      23.733  31.554  32.770  1.00  0.00     0.002 C 
ATOM     99  CD  ILE     2      23.758  32.403  34.050  1.00  0.00     0.000 C 
ENDBRANCH  96  98
ENDBRANCH  14  96
ENDBRANCH  12  14
ENDBRANCH   5  10
ENDBRANCH   1   5
TORSDOF 42
