REMARK WARNING: 32 MAX_TORS EXCEEDED!!!
REMARK  83 active torsions:
REMARK  status: ('A' for Active; 'I' for Inactive)
REMARK    1  A    between atoms: N_1  and  CA_2 
REMARK    2  A    between atoms: CA_2  and  C_3 
REMARK    3  A    between atoms: CA_2  and  CB_5 
REMARK       I    between atoms: C_3  and  N_20 
REMARK    4  A    between atoms: CB_5  and  CG_6 
REMARK    5  A    between atoms: CG_6  and  CD_7 
REMARK    6  A    between atoms: CD_7  and  NE_8 
REMARK       I    between atoms: NE_8  and  CZ_9 
REMARK       I    between atoms: CZ_9  and  NH2_11 
REMARK       I    between atoms: CZ_9  and  NH1_10 
REMARK    7  A    between atoms: CA_21  and  C_22 
REMARK       I    between atoms: C_22  and  N_27 
REMARK    8  A    between atoms: N_27  and  CA_28 
REMARK    9  A    between atoms: CA_28  and  CB_31 
REMARK   10  A    between atoms: CA_28  and  C_29 
REMARK       I    between atoms: C_29  and  N_44 
REMARK   11  A    between atoms: CB_31  and  CG_32 
REMARK   12  A    between atoms: CG_32  and  CD_33 
REMARK   13  A    between atoms: CD_33  and  NE_34 
REMARK       I    between atoms: NE_34  and  CZ_35 
REMARK       I    between atoms: CZ_35  and  NH1_36 
REMARK       I    between atoms: CZ_35  and  NH2_37 
REMARK   14  A    between atoms: N_44  and  CA_45 
REMARK   15  A    between atoms: CA_45  and  CB_48 
REMARK   16  A    between atoms: CA_45  and  C_46 
REMARK       I    between atoms: C_46  and  N_52 
REMARK   17  A    between atoms: CB_48  and  SG_49 
REMARK   18  A    between atoms: N_52  and  CA_53 
REMARK   19  A    between atoms: CA_53  and  C_54 
REMARK   20  A    between atoms: CA_53  and  CB_56 
REMARK       I    between atoms: C_54  and  N_68 
REMARK   21  A    between atoms: CB_56  and  CG_57 
REMARK   22  A    between atoms: N_68  and  CA_69 
REMARK   23  A    between atoms: CA_69  and  C_70 
REMARK   24  A    between atoms: CA_69  and  CB_72 
REMARK       I    between atoms: C_70  and  N_77 
REMARK   25  A    between atoms: CB_72  and  CG1_73 
REMARK   26  A    between atoms: N_77  and  CA_78 
REMARK   27  A    between atoms: CA_78  and  CB_81 
REMARK   28  A    between atoms: CA_78  and  C_79 
REMARK       I    between atoms: C_79  and  N_90 
REMARK   29  A    between atoms: CB_81  and  CG_82 
REMARK   30  A    between atoms: CG_82  and  CD_83 
REMARK   31  A    between atoms: CD_83  and  CE_84 
REMARK   32  A    between atoms: CE_84  and  NZ_85 
REMARK   33  A    between atoms: N_90  and  CA_91 
REMARK   34  A    between atoms: CA_91  and  CB_94 
REMARK   35  A    between atoms: CA_91  and  C_92 
REMARK       I    between atoms: C_92  and  N_99 
REMARK   36  A    between atoms: CB_94  and  CG1_95 
REMARK   37  A    between atoms: N_99  and  CA_100 
REMARK   38  A    between atoms: CA_100  and  CB_103 
REMARK   39  A    between atoms: CA_100  and  C_101 
REMARK       I    between atoms: C_101  and  N_112 
REMARK   40  A    between atoms: CB_103  and  CG_104 
REMARK   41  A    between atoms: CG_104  and  CD_105 
REMARK   42  A    between atoms: CD_105  and  CE_106 
REMARK   43  A    between atoms: CE_106  and  NZ_107 
REMARK   44  A    between atoms: N_112  and  CA_113 
REMARK   45  A    between atoms: CA_113  and  C_114 
REMARK   46  A    between atoms: CA_113  and  CB_116 
REMARK       I    between atoms: C_114  and  N_124 
REMARK   47  A    between atoms: CB_116  and  CG_117 
REMARK   48  A    between atoms: N_124  and  CA_125 
REMARK   49  A    between atoms: CA_125  and  C_126 
REMARK   50  A    between atoms: CA_125  and  CB_128 
REMARK       I    between atoms: C_126  and  N_141 
REMARK   51  A    between atoms: CB_128  and  CG_129 
REMARK   52  A    between atoms: CG_129  and  CD_130 
REMARK   53  A    between atoms: CD_130  and  NE_131 
REMARK       I    between atoms: NE_131  and  CZ_132 
REMARK       I    between atoms: CZ_132  and  NH1_133 
REMARK   54  A    between atoms: N_141  and  CA_142 
REMARK   55  A    between atoms: CA_142  and  C_143 
REMARK   56  A    between atoms: CA_142  and  CB_145 
REMARK       I    between atoms: C_143  and  N_149 
REMARK   57  A    between atoms: CB_145  and  SG_146 
REMARK   58  A    between atoms: N_149  and  CA_150 
REMARK   59  A    between atoms: CA_150  and  C_151 
REMARK   60  A    between atoms: CA_150  and  CB_153 
REMARK       I    between atoms: C_151  and  N_162 
REMARK   61  A    between atoms: CB_153  and  CG_154 
REMARK   62  A    between atoms: CG_154  and  CD_155 
REMARK   63  A    between atoms: CD_155  and  CE_156 
REMARK   64  A    between atoms: CE_156  and  NZ_157 
REMARK   65  A    between atoms: N_162  and  CA_163 
REMARK   66  A    between atoms: CA_163  and  C_164 
REMARK   67  A    between atoms: CA_163  and  CB_166 
REMARK       I    between atoms: C_164  and  N_170 
REMARK   68  A    between atoms: CB_166  and  OG_167 
REMARK   69  A    between atoms: N_170  and  CA_171 
REMARK   70  A    between atoms: CA_171  and  CB_174 
REMARK   71  A    between atoms: CA_171  and  C_172 
REMARK       I    between atoms: C_172  and  N_179 
REMARK   72  A    between atoms: CB_174  and  CG_175 
REMARK   73  A    between atoms: N_179  and  CA_180 
REMARK   74  A    between atoms: CA_180  and  C_181 
REMARK   75  A    between atoms: CA_180  and  CB_183 
REMARK       I    between atoms: C_181  and  N_192 
REMARK   76  A    between atoms: CB_183  and  CG_184 
REMARK   77  A    between atoms: CG_184  and  CD_185 
REMARK   78  A    between atoms: CD_185  and  CE_186 
REMARK   79  A    between atoms: CE_186  and  NZ_187 
REMARK   80  A    between atoms: N_192  and  CA_193 
REMARK   81  A    between atoms: CA_193  and  C_194 
REMARK   82  A    between atoms: CA_193  and  CB_196 
REMARK   83  A    between atoms: CB_196  and  CG_197 
ROOT
ATOM      1  N   ARG     1      34.604  42.703  27.551  1.00  0.00    -0.058 N 
ATOM      2  H1  ARG     1      34.480  42.493  28.520  1.00 99.99     0.276 HD
ATOM      3  H2  ARG     1      35.560  42.602  27.336  1.00 99.99     0.276 HD
ATOM      4  H3  ARG     1      34.397  43.654  27.389  1.00 99.99     0.276 HD
ENDROOT
BRANCH   1   5
ATOM      5  CA  ARG     1      33.747  41.769  26.767  1.00  0.00     0.255 C 
BRANCH   5   6
ATOM      6  C   ARG     1      32.981  40.866  27.760  1.00  0.00     0.262 C 
ATOM      7  N   PRO     2      31.647  40.787  27.665  1.00  0.00    -0.312 N 
ATOM      8  CA  PRO     2      30.878  39.781  28.423  1.00  0.00     0.163 C 
ATOM      9  CD  PRO     2      30.750  41.666  26.889  1.00  0.00     0.105 C 
ATOM     10  CB  PRO     2      29.413  40.169  28.218  1.00  0.00     0.034 C 
ATOM     11  CG  PRO     2      29.413  40.920  26.885  1.00  0.00     0.027 C 
ATOM     12  O   ARG     1      33.595  40.361  28.705  1.00  0.00    -0.270 OA
BRANCH   8  13
ATOM     13  C   PRO     2      31.209  38.376  27.896  1.00  0.00     0.251 C 
ATOM     14  O   PRO     2      31.629  38.219  26.751  1.00  0.00    -0.271 OA
ATOM     15  N   ARG     3      31.178  37.405  28.804  1.00  0.00    -0.338 N 
ATOM     16  H   ARG     3      31.001  37.589  29.774  1.00 99.99     0.164 HD
BRANCH  15  17
ATOM     17  CA  ARG     3      31.426  35.990  28.476  1.00  0.00     0.159 C 
BRANCH  17  18
ATOM     18  CB  ARG     3      32.930  35.678  28.562  1.00  0.00     0.034 C 
BRANCH  18  19
ATOM     19  CG  ARG     3      33.258  34.273  28.042  1.00  0.00     0.027 C 
BRANCH  19  20
ATOM     20  CD  ARG     3      34.698  33.840  28.338  1.00  0.00     0.116 C 
BRANCH  20  21
ATOM     21  NE  ARG     3      35.667  34.661  27.592  1.00  0.00    -0.212 N 
ATOM     22  CZ  ARG     3      36.993  34.494  27.564  1.00  0.00     0.666 C 
ATOM     23  NH1 ARG     3      37.599  33.533  28.253  1.00  0.00    -0.235 N 
ATOM     24  NH2 ARG     3      37.746  35.266  26.794  1.00  0.00    -0.235 N 
ATOM     25 1HH1 ARG     3      38.588  33.426  28.210  1.00 99.99     0.174 HD
ATOM     26 2HH1 ARG     3      37.044  32.918  28.811  1.00 99.99     0.174 HD
ATOM     27 1HH2 ARG     3      38.734  35.128  26.776  1.00 99.99     0.174 HD
ATOM     28 2HH2 ARG     3      37.330  35.976  26.227  1.00 99.99     0.174 HD
ATOM     29  HE  ARG     3      35.271  35.417  27.074  1.00 99.99     0.178 HD
ENDBRANCH  20  21
ENDBRANCH  19  20
ENDBRANCH  18  19
ENDBRANCH  17  18
BRANCH  17  30
ATOM     30  C   ARG     3      30.663  35.099  29.457  1.00  0.00     0.251 C 
ATOM     31  N   CYS     4      29.876  34.191  28.885  1.00  0.00    -0.337 N 
ATOM     32  H   CYS     4      29.717  34.190  27.899  1.00 99.99     0.164 HD
ATOM     33  O   ARG     3      30.747  35.277  30.674  1.00  0.00    -0.271 OA
BRANCH  31  34
ATOM     34  CA  CYS     4      29.126  33.161  29.625  1.00  0.00     0.170 C 
BRANCH  34  35
ATOM     35  CB  CYS     4      28.381  32.267  28.624  1.00  0.00     0.085 C 
BRANCH  35  36
ATOM     36  SG  CYS     4      27.563  33.154  27.247  1.00  0.00    -0.165 SA
ATOM     37  HG  CYS     4      27.082  32.067  26.650  1.00 99.99     0.102 HD
ENDBRANCH  35  36
ENDBRANCH  34  35
BRANCH  34  38
ATOM     38  C   CYS     4      30.094  32.267  30.416  1.00  0.00     0.252 C 
ATOM     39  N   TRP     5      29.715  31.982  31.658  1.00  0.00    -0.337 N 
ATOM     40  H   TRP     5      28.935  32.427  32.092  1.00 99.99     0.164 HD
ATOM     41  O   CYS     4      31.148  31.874  29.916  1.00  0.00    -0.271 OA
BRANCH  39  42
ATOM     42  CA  TRP     5      30.441  31.033  32.521  1.00  0.00     0.164 C 
BRANCH  42  43
ATOM     43  C   TRP     5      29.639  29.739  32.631  1.00  0.00     0.251 C 
ATOM     44  O   TRP     5      28.433  29.752  32.891  1.00  0.00    -0.271 OA
ATOM     45  N   ILE     6      30.281  28.668  32.169  1.00  0.00    -0.338 N 
ATOM     46  H   ILE     6      31.205  28.751  31.801  1.00 99.99     0.164 HD
BRANCH  45  47
ATOM     47  CA  ILE     6      29.711  27.307  32.163  1.00  0.00     0.159 C 
BRANCH  47  48
ATOM     48  C   ILE     6      30.080  26.528  33.441  1.00  0.00     0.251 C 
ATOM     49  N   LYS     7      29.773  25.225  33.485  1.00  0.00    -0.338 N 
ATOM     50  H   LYS     7      29.290  24.783  32.731  1.00 99.99     0.164 HD
ATOM     51  O   ILE     6      30.629  27.110  34.377  1.00  0.00    -0.271 OA
BRANCH  49  52
ATOM     52  CA  LYS     7      30.052  24.347  34.639  1.00  0.00     0.159 C 
BRANCH  52  53
ATOM     53  CB  LYS     7      29.239  23.057  34.444  1.00  0.00     0.032 C 
BRANCH  53  54
ATOM     54  CG  LYS     7      29.257  22.134  35.667  1.00  0.00     0.004 C 
BRANCH  54  55
ATOM     55  CD  LYS     7      28.614  20.786  35.340  1.00  0.00     0.032 C 
BRANCH  55  56
ATOM     56  CE  LYS     7      28.782  19.808  36.503  1.00  0.00     0.206 C 
BRANCH  56  57
ATOM     57  NZ  LYS     7      28.216  18.491  36.170  1.00  0.00    -0.064 N 
ATOM     58  HZ3 LYS     7      28.678  18.125  35.363  1.00 99.99     0.275 HD
ATOM     59  HZ2 LYS     7      27.240  18.587  35.983  1.00 99.99     0.275 HD
ATOM     60  HZ1 LYS     7      28.349  17.868  36.941  1.00 99.99     0.275 HD
ENDBRANCH  56  57
ENDBRANCH  55  56
ENDBRANCH  54  55
ENDBRANCH  53  54
ENDBRANCH  52  53
BRANCH  52  61
ATOM     61  C   LYS     7      31.565  24.086  34.841  1.00  0.00     0.251 C 
ATOM     62  O   LYS     7      32.108  23.031  34.509  1.00  0.00    -0.271 OA
ATOM     63  N   ILE     8      32.215  25.082  35.438  1.00  0.00    -0.338 N 
ATOM     64  H   ILE     8      31.732  25.945  35.628  1.00 99.99     0.164 HD
BRANCH  63  65
ATOM     65  CA  ILE     8      33.665  25.148  35.720  1.00  0.00     0.159 C 
BRANCH  65  66
ATOM     66  CB  ILE     8      34.446  25.482  34.419  1.00  0.00     0.029 C 
ATOM     67  CG2 ILE     8      34.009  26.821  33.792  1.00  0.00     0.002 C 
BRANCH  66  68
ATOM     68  CG1 ILE     8      35.966  25.389  34.645  1.00  0.00     0.002 C 
ATOM     69  CD  ILE     8      36.827  25.474  33.376  1.00  0.00     0.000 C 
ENDBRANCH  66  68
ENDBRANCH  65  66
BRANCH  65  70
ATOM     70  C   ILE     8      33.894  26.187  36.839  1.00  0.00     0.251 C 
ATOM     71  O   ILE     8      33.165  27.173  36.930  1.00  0.00    -0.271 OA
ATOM     72  N   LYS     9      34.896  25.950  37.685  1.00  0.00    -0.338 N 
ATOM     73  H   LYS     9      35.470  25.135  37.614  1.00 99.99     0.164 HD
BRANCH  72  74
ATOM     74  CA  LYS     9      35.219  26.853  38.808  1.00  0.00     0.159 C 
BRANCH  74  75
ATOM     75  CB  LYS     9      35.186  26.075  40.137  1.00  0.00     0.032 C 
BRANCH  75  76
ATOM     76  CG  LYS     9      33.830  25.473  40.512  1.00  0.00     0.004 C 
BRANCH  76  77
ATOM     77  CD  LYS     9      33.980  24.693  41.821  1.00  0.00     0.032 C 
BRANCH  77  78
ATOM     78  CE  LYS     9      32.668  24.040  42.262  1.00  0.00     0.206 C 
BRANCH  78  79
ATOM     79  NZ  LYS     9      32.857  23.312  43.524  1.00  0.00    -0.064 N 
ATOM     80  HZ3 LYS     9      33.159  23.948  44.235  1.00 99.99     0.275 HD
ATOM     81  HZ2 LYS     9      33.549  22.600  43.401  1.00 99.99     0.275 HD
ATOM     82  HZ1 LYS     9      31.993  22.891  43.802  1.00 99.99     0.275 HD
ENDBRANCH  78  79
ENDBRANCH  77  78
ENDBRANCH  76  77
ENDBRANCH  75  76
ENDBRANCH  74  75
BRANCH  74  83
ATOM     83  C   LYS     9      36.603  27.497  38.614  1.00  0.00     0.251 C 
ATOM     84  N   PHE    10      36.640  28.618  37.891  1.00  0.00    -0.337 N 
ATOM     85  H   PHE    10      35.815  29.099  37.593  1.00 99.99     0.164 HD
ATOM     86  O   LYS     9      37.618  26.993  39.098  1.00  0.00    -0.271 OA
BRANCH  84  87
ATOM     87  CA  PHE    10      37.925  29.291  37.601  1.00  0.00     0.164 C 
BRANCH  87  88
ATOM     88  C   PHE    10      38.040  30.683  38.238  1.00  0.00     0.251 C 
ATOM     89  O   PHE    10      37.095  31.473  38.243  1.00  0.00    -0.271 OA
ATOM     90  N   ARG    11      39.226  30.942  38.790  1.00  0.00    -0.338 N 
ATOM     91  H   ARG    11      39.960  30.264  38.770  1.00 99.99     0.164 HD
BRANCH  90  92
ATOM     92  CA  ARG    11      39.559  32.193  39.494  1.00  0.00     0.159 C 
BRANCH  92  93
ATOM     93  C   ARG    11      39.727  33.384  38.531  1.00  0.00     0.251 C 
ATOM     94  O   ARG    11      40.818  33.669  38.030  1.00  0.00    -0.271 OA
ATOM     95  N   CYS    12      38.614  34.062  38.256  1.00  0.00    -0.337 N 
ATOM     96  H   CYS    12      37.712  33.705  38.512  1.00 99.99     0.164 HD
BRANCH  95  97
ATOM     97  CA  CYS    12      38.632  35.255  37.395  1.00  0.00     0.170 C 
BRANCH  97  98
ATOM     98  C   CYS    12      38.461  36.574  38.157  1.00  0.00     0.252 C 
ATOM     99  O   CYS    12      37.962  36.611  39.282  1.00  0.00    -0.271 OA
ATOM    100  N   LYS    13      39.054  37.612  37.559  1.00  0.00    -0.337 N 
ATOM    101  H   LYS    13      39.715  37.444  36.831  1.00 99.99     0.164 HD
BRANCH 100 102
ATOM    102  CA  LYS    13      38.912  39.013  37.990  1.00  0.00     0.159 C 
BRANCH 102 103
ATOM    103  C   LYS    13      38.434  40.010  36.918  1.00  0.00     0.251 C 
ATOM    104  O   LYS    13      37.742  40.972  37.247  1.00  0.00    -0.271 OA
ATOM    105  N   SER    14      38.703  39.731  35.639  1.00  0.00    -0.336 N 
ATOM    106  H   SER    14      39.202  38.915  35.350  1.00 99.99     0.164 HD
BRANCH 105 107
ATOM    107  CA  SER    14      38.427  40.665  34.526  1.00  0.00     0.189 C 
BRANCH 107 108
ATOM    108  C   SER    14      37.342  40.234  33.520  1.00  0.00     0.253 C 
ATOM    109  O   SER    14      37.270  40.737  32.397  1.00  0.00    -0.270 OA
ATOM    110  N   LEU    15      36.457  39.343  33.963  1.00  0.00    -0.337 N 
ATOM    111  H   LEU    15      36.531  38.937  34.872  1.00 99.99     0.164 HD
BRANCH 110 112
ATOM    112  CA  LEU    15      35.234  38.981  33.226  1.00  0.00     0.159 C 
BRANCH 112 113
ATOM    113  CB  LEU    15      35.216  37.506  32.799  1.00  0.00     0.032 C 
BRANCH 113 114
ATOM    114  CG  LEU    15      36.135  37.179  31.620  1.00  0.00     0.002 C 
ATOM    115  CD2 LEU    15      35.652  37.850  30.328  1.00  0.00     0.000 C 
ATOM    116  CD1 LEU    15      36.166  35.662  31.429  1.00  0.00     0.000 C 
ENDBRANCH 113 114
ENDBRANCH 112 113
BRANCH 112 117
ATOM    117  C   LEU    15      34.014  39.231  34.103  1.00  0.00     0.251 C 
ATOM    118  N   LYS    16      32.987  39.779  33.464  1.00  0.00    -0.338 N 
ATOM    119  H   LYS    16      33.009  39.971  32.484  1.00 99.99     0.164 HD
ATOM    120  O   LEU    15      34.004  38.887  35.287  1.00  0.00    -0.271 OA
BRANCH 118 121
ATOM    121  CA  LYS    16      31.705  40.047  34.115  1.00  0.00     0.159 C 
BRANCH 121 122
ATOM    122  C   LYS    16      30.570  39.398  33.313  1.00  0.00     0.251 C 
ATOM    123  O   LYS    16      30.659  39.175  32.105  1.00  0.00    -0.271 OA
ATOM    124  N   PHE    17      29.635  38.907  34.110  1.00  0.00    -0.336 N 
ATOM    125  H   PHE    17      29.809  38.800  35.090  1.00 99.99     0.164 HD
BRANCH 124 126
ATOM    126  CA  PHE    17      28.288  38.489  33.702  1.00  0.00     0.172 C 
BRANCH 126 127
ATOM    127  C   PHE    17      27.311  39.330  34.554  1.00  0.00     0.207 C 
ATOM    128  O   PHE    17      26.480  40.038  33.948  1.00 99.99    -0.646 OA
ATOM    129  OXT PHE    17      27.650  39.477  35.755  1.00 99.99    -0.646 OA
ENDBRANCH 126 127
BRANCH 126 130
ATOM    130  CB  PHE    17      28.221  37.000  34.047  1.00  0.00     0.058 C 
BRANCH 130 131
ATOM    131  CG  PHE    17      27.043  36.242  33.426  1.00  0.00    -0.044 A 
ATOM    132  CD1 PHE    17      27.175  35.673  32.169  1.00  0.00     0.008 A 
ATOM    133  CE1 PHE    17      26.209  34.796  31.700  1.00  0.00     0.001 A 
ATOM    134  CZ  PHE    17      25.111  34.475  32.498  1.00  0.00     0.000 A 
ATOM    135  CE2 PHE    17      24.979  35.057  33.760  1.00  0.00     0.001 A 
ATOM    136  CD2 PHE    17      25.947  35.944  34.217  1.00  0.00     0.008 A 
ENDBRANCH 130 131
ENDBRANCH 126 130
ENDBRANCH 124 126
ENDBRANCH 121 122
BRANCH 121 137
ATOM    137  CB  LYS    16      31.489  41.562  34.227  1.00  0.00     0.032 C 
BRANCH 137 138
ATOM    138  CG  LYS    16      30.341  41.883  35.187  1.00  0.00     0.004 C 
BRANCH 138 139
ATOM    139  CD  LYS    16      29.997  43.370  35.214  1.00  0.00     0.032 C 
BRANCH 139 140
ATOM    140  CE  LYS    16      28.773  43.580  36.106  1.00  0.00     0.206 C 
BRANCH 140 141
ATOM    141  NZ  LYS    16      28.409  45.000  36.180  1.00  0.00    -0.064 N 
ATOM    142  HZ2 LYS    16      29.172  45.517  36.568  1.00 99.99     0.275 HD
ATOM    143  HZ1 LYS    16      27.604  45.103  36.765  1.00 99.99     0.275 HD
ATOM    144  HZ3 LYS    16      28.202  45.340  35.263  1.00 99.99     0.275 HD
ENDBRANCH 140 141
ENDBRANCH 139 140
ENDBRANCH 138 139
ENDBRANCH 137 138
ENDBRANCH 121 137
ENDBRANCH 118 121
ENDBRANCH 112 117
ENDBRANCH 110 112
ENDBRANCH 107 108
BRANCH 107 145
ATOM    145  CB  SER    14      39.745  40.962  33.798  1.00  0.00     0.169 C 
BRANCH 145 146
ATOM    146  OG  SER    14      40.411  39.735  33.477  1.00  0.00    -0.380 OA
ATOM    147  HG  SER    14      41.243  39.949  32.960  1.00 99.99     0.211 HD
ENDBRANCH 145 146
ENDBRANCH 107 145
ENDBRANCH 105 107
ENDBRANCH 102 103
BRANCH 102 148
ATOM    148  CB  LYS    13      40.200  39.528  38.663  1.00  0.00     0.032 C 
BRANCH 148 149
ATOM    149  CG  LYS    13      40.464  38.865  40.023  1.00  0.00     0.004 C 
BRANCH 149 150
ATOM    150  CD  LYS    13      39.314  39.114  41.005  1.00  0.00     0.032 C 
BRANCH 150 151
ATOM    151  CE  LYS    13      39.354  38.141  42.183  1.00  0.00     0.206 C 
BRANCH 151 152
ATOM    152  NZ  LYS    13      38.058  38.144  42.879  1.00  0.00    -0.064 N 
ATOM    153  HZ1 LYS    13      38.084  37.499  43.641  1.00 99.99     0.275 HD
ATOM    154  HZ2 LYS    13      37.857  39.063  43.214  1.00 99.99     0.275 HD
ATOM    155  HZ3 LYS    13      37.347  37.863  42.231  1.00 99.99     0.275 HD
ENDBRANCH 151 152
ENDBRANCH 150 151
ENDBRANCH 149 150
ENDBRANCH 148 149
ENDBRANCH 102 148
ENDBRANCH 100 102
ENDBRANCH  97  98
BRANCH  97 156
ATOM    156  CB  CYS    12      37.563  35.149  36.301  1.00  0.00     0.085 C 
BRANCH 156 157
ATOM    157  SG  CYS    12      37.855  36.348  34.949  1.00  0.00    -0.165 SA
ATOM    158  HG  CYS    12      36.810  35.994  34.209  1.00 99.99     0.102 HD
ENDBRANCH 156 157
ENDBRANCH  97 156
ENDBRANCH  95  97
ENDBRANCH  92  93
BRANCH  92 159
ATOM    159  CB  ARG    11      40.831  31.943  40.320  1.00  0.00     0.034 C 
BRANCH 159 160
ATOM    160  CG  ARG    11      41.206  33.136  41.202  1.00  0.00     0.027 C 
BRANCH 160 161
ATOM    161  CD  ARG    11      42.659  33.017  41.665  1.00  0.00     0.116 C 
BRANCH 161 162
ATOM    162  NE  ARG    11      43.061  34.261  42.343  1.00  0.00    -0.212 N 
ATOM    163  HE  ARG    11      42.873  34.287  43.321  1.00 99.99     0.178 HD
ATOM    164  CZ  ARG    11      43.637  35.328  41.775  1.00  0.00     0.666 C 
ATOM    165  NH1 ARG    11      43.912  35.376  40.477  1.00  0.00    -0.235 N 
ATOM    166  NH2 ARG    11      43.943  36.388  42.508  1.00  0.00    -0.235 N 
ATOM    167 2HH1 ARG    11      43.670  34.593  39.903  1.00 99.99     0.174 HD
ATOM    168 1HH1 ARG    11      44.340  36.182  40.079  1.00 99.99     0.174 HD
ATOM    169 1HH2 ARG    11      44.370  37.178  42.073  1.00 99.99     0.174 HD
ATOM    170 2HH2 ARG    11      43.744  36.404  43.486  1.00 99.99     0.174 HD
ENDBRANCH 161 162
ENDBRANCH 160 161
ENDBRANCH 159 160
ENDBRANCH  92 159
ENDBRANCH  90  92
ENDBRANCH  87  88
BRANCH  87 171
ATOM    171  CB  PHE    10      38.231  29.305  36.096  1.00  0.00     0.056 C 
BRANCH 171 172
ATOM    172  CG  PHE    10      37.338  30.231  35.250  1.00  0.00    -0.044 A 
ATOM    173  CD2 PHE    10      36.112  29.796  34.784  1.00  0.00     0.008 A 
ATOM    174  CE2 PHE    10      35.310  30.642  34.033  1.00  0.00     0.001 A 
ATOM    175  CZ  PHE    10      35.738  31.940  33.748  1.00  0.00     0.000 A 
ATOM    176  CE1 PHE    10      36.987  32.367  34.206  1.00  0.00     0.001 A 
ATOM    177  CD1 PHE    10      37.779  31.511  34.961  1.00  0.00     0.008 A 
ENDBRANCH 171 172
ENDBRANCH  87 171
ENDBRANCH  84  87
ENDBRANCH  74  83
ENDBRANCH  72  74
ENDBRANCH  65  70
ENDBRANCH  63  65
ENDBRANCH  52  61
ENDBRANCH  49  52
ENDBRANCH  47  48
BRANCH  47 178
ATOM    178  CB  ILE     6      30.108  26.569  30.863  1.00  0.00     0.029 C 
ATOM    179  CG2 ILE     6      29.338  27.185  29.684  1.00  0.00     0.002 C 
BRANCH 178 180
ATOM    180  CG1 ILE     6      31.633  26.541  30.646  1.00  0.00     0.002 C 
ATOM    181  CD  ILE     6      32.101  25.612  29.518  1.00  0.00     0.000 C 
ENDBRANCH 178 180
ENDBRANCH  47 178
ENDBRANCH  45  47
ENDBRANCH  42  43
BRANCH  42 182
ATOM    182  CB  TRP     5      30.663  31.631  33.917  1.00  0.00     0.059 C 
BRANCH 182 183
ATOM    183  CG  TRP     5      31.718  32.744  34.004  1.00  0.00    -0.016 A 
ATOM    184  CD1 TRP     5      32.147  33.561  33.042  1.00  0.00     0.097 A 
ATOM    185  NE1 TRP     5      32.900  34.527  33.568  1.00  0.00    -0.365 N 
ATOM    186  CE2 TRP     5      32.993  34.342  34.884  1.00  0.00     0.042 A 
ATOM    187  HE1 TRP     5      33.276  35.301  33.061  1.00 99.99     0.165 HD
ATOM    188  CD2 TRP     5      32.261  33.207  35.190  1.00  0.00    -0.001 A 
ATOM    189  CZ2 TRP     5      33.573  35.086  35.903  1.00  0.00     0.030 A 
ATOM    190  CE3 TRP     5      32.102  32.803  36.508  1.00  0.00     0.014 A 
ATOM    191  CZ3 TRP     5      32.671  33.554  37.533  1.00  0.00     0.001 A 
ATOM    192  CH2 TRP     5      33.410  34.694  37.225  1.00  0.00     0.002 A 
ENDBRANCH 182 183
ENDBRANCH  42 182
ENDBRANCH  39  42
ENDBRANCH  34  38
ENDBRANCH  31  34
ENDBRANCH  17  30
ENDBRANCH  15  17
ENDBRANCH   8  13
ENDBRANCH   5   6
BRANCH   5 193
ATOM    193  CB  ARG     1      34.611  40.901  25.828  1.00  0.00     0.042 C 
BRANCH 193 194
ATOM    194  CG  ARG     1      33.829  39.905  24.948  1.00  0.00     0.027 C 
BRANCH 194 195
ATOM    195  CD  ARG     1      34.751  38.977  24.142  1.00  0.00     0.116 C 
BRANCH 195 196
ATOM    196  NE  ARG     1      33.974  37.967  23.393  1.00  0.00    -0.212 N 
ATOM    197  HE  ARG     1      32.993  37.966  23.576  1.00 99.99     0.178 HD
ATOM    198  CZ  ARG     1      34.451  37.058  22.527  1.00  0.00     0.666 C 
ATOM    199  NH2 ARG     1      33.638  36.193  21.935  1.00  0.00    -0.235 N 
ATOM    200  NH1 ARG     1      35.742  36.973  22.228  1.00  0.00    -0.235 N 
ATOM    201 2HH2 ARG     1      32.658  36.195  22.128  1.00 99.99     0.174 HD
ATOM    202 1HH2 ARG     1      34.013  35.527  21.292  1.00 99.99     0.174 HD
ATOM    203 1HH1 ARG     1      36.065  36.289  21.578  1.00 99.99     0.174 HD
ATOM    204 2HH1 ARG     1      36.383  37.604  22.661  1.00 99.99     0.174 HD
ENDBRANCH 195 196
ENDBRANCH 194 195
ENDBRANCH 193 194
ENDBRANCH   5 193
ENDBRANCH   1   5
TORSDOF 83
