REMARK WARNING: 32 MAX_TORS EXCEEDED!!!
REMARK  33 active torsions:
REMARK  status: ('A' for Active; 'I' for Inactive)
REMARK    1  A    between atoms: N_1  and  CA_2 
REMARK    2  A    between atoms: CA_2  and  C_3 
REMARK       I    between atoms: C_3  and  N_9 
REMARK    3  A    between atoms: N_9  and  CA_10 
REMARK    4  A    between atoms: CA_10  and  C_11 
REMARK    5  A    between atoms: CA_10  and  CB_13 
REMARK       I    between atoms: C_11  and  N_21 
REMARK    6  A    between atoms: CB_13  and  CG_14 
REMARK    7  A    between atoms: N_21  and  CA_22 
REMARK    8  A    between atoms: CA_22  and  C_23 
REMARK       I    between atoms: C_23  and  N_27 
REMARK    9  A    between atoms: N_27  and  CA_28 
REMARK   10  A    between atoms: CA_28  and  C_29 
REMARK   11  A    between atoms: CA_28  and  CB_31 
REMARK       I    between atoms: C_29  and  N_40 
REMARK   12  A    between atoms: CB_31  and  CG_32 
REMARK   13  A    between atoms: CG_32  and  CD_33 
REMARK   14  A    between atoms: CD_33  and  CE_34 
REMARK   15  A    between atoms: CE_34  and  NZ_35 
REMARK   16  A    between atoms: N_40  and  CA_41 
REMARK   17  A    between atoms: CA_41  and  CB_44 
REMARK   18  A    between atoms: CA_41  and  C_42 
REMARK       I    between atoms: C_42  and  N_49 
REMARK   19  A    between atoms: CB_44  and  CG_45 
REMARK   20  A    between atoms: N_49  and  CA_50 
REMARK   21  A    between atoms: CA_50  and  C_51 
REMARK   22  A    between atoms: CA_50  and  CB_53 
REMARK       I    between atoms: C_51  and  N_62 
REMARK   23  A    between atoms: CB_53  and  CG_54 
REMARK   24  A    between atoms: CG_54  and  CD_55 
REMARK   25  A    between atoms: CD_55  and  CE_56 
REMARK   26  A    between atoms: CE_56  and  NZ_57 
REMARK   27  A    between atoms: N_62  and  CA_63 
REMARK   28  A    between atoms: CA_63  and  CB_66 
REMARK   29  A    between atoms: CA_63  and  C_64 
REMARK   30  A    between atoms: CB_66  and  CG_67 
REMARK   31  A    between atoms: CG_67  and  CD_68 
REMARK   32  A    between atoms: CD_68  and  CE_69 
REMARK   33  A    between atoms: CE_69  and  NZ_70 
ROOT
ATOM      1  N   ALA     1      26.701  31.499  34.686  1.00  0.00    -0.058 N 
ATOM      2  H1  ALA     1      27.661  31.761  34.587  1.00 99.99     0.276 HD
ATOM      3  H2  ALA     1      26.149  32.327  34.781  1.00 99.99     0.276 HD
ATOM      4  H3  ALA     1      26.555  31.018  35.547  1.00 99.99     0.276 HD
ENDROOT
BRANCH   1   5
ATOM      5  CA  ALA     1      26.250  30.681  33.528  1.00  0.00     0.255 C 
ATOM      6  CB  ALA     1      25.009  31.360  32.929  1.00  0.00     0.042 C 
BRANCH   5   7
ATOM      7  C   ALA     1      27.284  30.353  32.410  1.00  0.00     0.259 C 
ATOM      8  O   ALA     1      26.910  30.029  31.281  1.00  0.00    -0.271 OA
ATOM      9  N   PHE     2      28.547  30.133  32.794  1.00  0.00    -0.337 N 
ATOM     10  H   PHE     2      28.779  29.966  33.751  1.00 99.99     0.164 HD
BRANCH   9  11
ATOM     11  CA  PHE     2      29.704  30.058  31.865  1.00  0.00     0.164 C 
BRANCH  11  12
ATOM     12  C   PHE     2      29.513  29.187  30.600  1.00  0.00     0.251 C 
ATOM     13  N   ALA     3      29.111  27.931  30.800  1.00  0.00    -0.338 N 
ATOM     14  H   ALA     3      29.064  27.548  31.720  1.00 99.99     0.164 HD
ATOM     15  O   PHE     2      29.522  29.712  29.487  1.00  0.00    -0.271 OA
BRANCH  13  16
ATOM     16  CA  ALA     3      28.817  26.953  29.726  1.00  0.00     0.159 C 
ATOM     17  CB  ALA     3      28.447  25.617  30.376  1.00  0.00     0.034 C 
BRANCH  16  18
ATOM     18  C   ALA     3      27.738  27.349  28.692  1.00  0.00     0.251 C 
ATOM     19  O   ALA     3      27.703  26.788  27.600  1.00  0.00    -0.271 OA
ATOM     20  N   LYS     4      26.854  28.278  29.057  1.00  0.00    -0.338 N 
ATOM     21  H   LYS     4      26.850  28.662  29.982  1.00 99.99     0.164 HD
BRANCH  20  22
ATOM     22  CA  LYS     4      25.797  28.838  28.180  1.00  0.00     0.159 C 
BRANCH  22  23
ATOM     23  C   LYS     4      26.170  30.161  27.474  1.00  0.00     0.251 C 
ATOM     24  N   LEU     5      27.356  30.666  27.800  1.00  0.00    -0.338 N 
ATOM     25  H   LEU     5      27.858  30.315  28.590  1.00 99.99     0.164 HD
ATOM     26  O   LYS     4      25.334  30.791  26.829  1.00  0.00    -0.271 OA
BRANCH  24  27
ATOM     27  CA  LEU     5      27.972  31.861  27.182  1.00  0.00     0.159 C 
BRANCH  27  28
ATOM     28  CB  LEU     5      28.461  32.811  28.283  1.00  0.00     0.032 C 
BRANCH  28  29
ATOM     29  CG  LEU     5      27.350  33.387  29.169  1.00  0.00     0.002 C 
ATOM     30  CD2 LEU     5      26.499  34.407  28.405  1.00  0.00     0.000 C 
ATOM     31  CD1 LEU     5      27.982  34.060  30.388  1.00  0.00     0.000 C 
ENDBRANCH  28  29
ENDBRANCH  27  28
BRANCH  27  32
ATOM     32  C   LEU     5      29.167  31.506  26.277  1.00  0.00     0.251 C 
ATOM     33  O   LEU     5      29.657  32.349  25.530  1.00  0.00    -0.271 OA
ATOM     34  N   LYS     6      29.733  30.323  26.522  1.00  0.00    -0.338 N 
ATOM     35  H   LYS     6      29.539  29.833  27.370  1.00 99.99     0.164 HD
BRANCH  34  36
ATOM     36  CA  LYS     6      30.837  29.747  25.727  1.00  0.00     0.159 C 
BRANCH  36  37
ATOM     37  C   LYS     6      30.357  28.789  24.608  1.00  0.00     0.251 C 
ATOM     38  O   LYS     6      31.152  28.270  23.827  1.00  0.00    -0.271 OA
ATOM     39  N   LYS     7      29.064  28.474  24.619  1.00  0.00    -0.336 N 
ATOM     40  H   LYS     7      28.453  28.838  25.319  1.00 99.99     0.164 HD
BRANCH  39  41
ATOM     41  CA  LYS     7      28.380  27.712  23.551  1.00  0.00     0.168 C 
BRANCH  41  42
ATOM     42  CB  LYS     7      27.634  26.495  24.102  1.00  0.00     0.033 C 
BRANCH  42  43
ATOM     43  CG  LYS     7      28.427  25.358  24.739  1.00  0.00     0.004 C 
BRANCH  43  44
ATOM     44  CD  LYS     7      27.356  24.350  25.154  1.00  0.00     0.032 C 
BRANCH  44  45
ATOM     45  CE  LYS     7      27.880  23.082  25.821  1.00  0.00     0.206 C 
BRANCH  45  46
ATOM     46  NZ  LYS     7      26.730  22.207  26.089  1.00  0.00    -0.064 N 
ATOM     47  HZ1 LYS     7      27.038  21.363  26.528  1.00 99.99     0.275 HD
ATOM     48  HZ2 LYS     7      26.086  22.685  26.686  1.00 99.99     0.275 HD
ATOM     49  HZ3 LYS     7      26.276  21.990  25.225  1.00 99.99     0.275 HD
ENDBRANCH  45  46
ENDBRANCH  44  45
ENDBRANCH  43  44
ENDBRANCH  42  43
ENDBRANCH  41  42
BRANCH  41  50
ATOM     50  C   LYS     7      27.273  28.599  22.964  1.00  0.00     0.206 C 
ATOM     51  OXT LYS     7      26.531  29.136  23.818  1.00 99.99    -0.646 OA
ATOM     52  O   LYS     7      27.198  28.724  21.722  1.00 99.99    -0.646 OA
ENDBRANCH  41  50
ENDBRANCH  39  41
ENDBRANCH  36  37
BRANCH  36  53
ATOM     53  CB  LYS     6      31.794  29.033  26.686  1.00  0.00     0.032 C 
BRANCH  53  54
ATOM     54  CG  LYS     6      33.178  28.917  26.045  1.00  0.00     0.004 C 
BRANCH  54  55
ATOM     55  CD  LYS     6      34.012  27.788  26.642  1.00  0.00     0.032 C 
BRANCH  55  56
ATOM     56  CE  LYS     6      35.205  27.536  25.721  1.00  0.00     0.206 C 
BRANCH  56  57
ATOM     57  NZ  LYS     6      36.037  26.425  26.201  1.00  0.00    -0.064 N 
ATOM     58  HZ3 LYS     6      35.484  25.595  26.258  1.00 99.99     0.275 HD
ATOM     59  HZ2 LYS     6      36.403  26.655  27.101  1.00 99.99     0.275 HD
ATOM     60  HZ1 LYS     6      36.789  26.281  25.558  1.00 99.99     0.275 HD
ENDBRANCH  56  57
ENDBRANCH  55  56
ENDBRANCH  54  55
ENDBRANCH  53  54
ENDBRANCH  36  53
ENDBRANCH  34  36
ENDBRANCH  27  32
ENDBRANCH  24  27
ENDBRANCH  22  23
BRANCH  22  61
ATOM     61  CB  LYS     4      24.527  29.092  28.997  1.00  0.00     0.032 C 
BRANCH  61  62
ATOM     62  CG  LYS     4      23.732  27.840  29.361  1.00  0.00     0.004 C 
BRANCH  62  63
ATOM     63  CD  LYS     4      22.396  28.291  29.955  1.00  0.00     0.032 C 
BRANCH  63  64
ATOM     64  CE  LYS     4      21.464  27.117  30.250  1.00  0.00     0.206 C 
BRANCH  64  65
ATOM     65  NZ  LYS     4      20.146  27.605  30.683  1.00  0.00    -0.064 N 
ATOM     66  HZ3 LYS     4      19.743  28.163  29.957  1.00 99.99     0.275 HD
ATOM     67  HZ2 LYS     4      20.244  28.159  31.509  1.00 99.99     0.275 HD
ATOM     68  HZ1 LYS     4      19.547  26.826  30.871  1.00 99.99     0.275 HD
ENDBRANCH  64  65
ENDBRANCH  63  64
ENDBRANCH  62  63
ENDBRANCH  61  62
ENDBRANCH  22  61
ENDBRANCH  20  22
ENDBRANCH  16  18
ENDBRANCH  13  16
ENDBRANCH  11  12
BRANCH  11  69
ATOM     69  CB  PHE     2      30.936  29.645  32.683  1.00  0.00     0.056 C 
BRANCH  69  70
ATOM     70  CG  PHE     2      32.236  29.606  31.875  1.00  0.00    -0.044 A 
ATOM     71  CD2 PHE     2      32.748  28.381  31.461  1.00  0.00     0.008 A 
ATOM     72  CE2 PHE     2      33.956  28.329  30.778  1.00  0.00     0.001 A 
ATOM     73  CZ  PHE     2      34.659  29.498  30.516  1.00  0.00     0.000 A 
ATOM     74  CE1 PHE     2      34.148  30.722  30.932  1.00  0.00     0.001 A 
ATOM     75  CD1 PHE     2      32.940  30.777  31.615  1.00  0.00     0.008 A 
ENDBRANCH  69  70
ENDBRANCH  11  69
ENDBRANCH   9  11
ENDBRANCH   5   7
ENDBRANCH   1   5
TORSDOF 33
