REMARK WARNING: 32 MAX_TORS EXCEEDED!!!
REMARK  59 active torsions:
REMARK  status: ('A' for Active; 'I' for Inactive)
REMARK    1  A    between atoms: N_1  and  CA_2 
REMARK    2  A    between atoms: CA_2  and  CB_5 
REMARK    3  A    between atoms: CA_2  and  C_3 
REMARK       I    between atoms: C_3  and  N_12 
REMARK    4  A    between atoms: CB_5  and  CG1_6 
REMARK    5  A    between atoms: N_12  and  CA_13 
REMARK    6  A    between atoms: CA_13  and  C_14 
REMARK    7  A    between atoms: CA_13  and  CB_16 
REMARK       I    between atoms: C_14  and  N_21 
REMARK    8  A    between atoms: CB_16  and  CG_17 
REMARK    9  A    between atoms: N_21  and  CA_22 
REMARK   10  A    between atoms: CA_22  and  C_23 
REMARK       I    between atoms: C_23  and  N_26 
REMARK   11  A    between atoms: N_26  and  CA_27 
REMARK   12  A    between atoms: CA_27  and  C_28 
REMARK   13  A    between atoms: CA_27  and  CB_30 
REMARK       I    between atoms: C_28  and  N_39 
REMARK   14  A    between atoms: CB_30  and  CG_31 
REMARK   15  A    between atoms: CG_31  and  CD_32 
REMARK   16  A    between atoms: CD_32  and  CE_33 
REMARK   17  A    between atoms: CE_33  and  NZ_34 
REMARK   18  A    between atoms: N_39  and  CA_40 
REMARK   19  A    between atoms: CA_40  and  CB_43 
REMARK   20  A    between atoms: CA_40  and  C_41 
REMARK       I    between atoms: C_41  and  N_48 
REMARK   21  A    between atoms: CB_43  and  CG_44 
REMARK   22  A    between atoms: N_48  and  CA_49 
REMARK   23  A    between atoms: CA_49  and  C_50 
REMARK   24  A    between atoms: CA_49  and  CB_52 
REMARK       I    between atoms: C_50  and  N_57 
REMARK   25  A    between atoms: CB_52  and  CG_53 
REMARK   26  A    between atoms: N_57  and  CA_58 
REMARK   27  A    between atoms: CA_58  and  C_59 
REMARK   28  A    between atoms: CA_58  and  CB_61 
REMARK       I    between atoms: C_59  and  N_65 
REMARK   29  A    between atoms: CB_61  and  OG_62 
REMARK   30  A    between atoms: N_65  and  CA_66 
REMARK   31  A    between atoms: CA_66  and  C_67 
REMARK   32  A    between atoms: CA_66  and  CB_69 
REMARK       I    between atoms: C_67  and  N_74 
REMARK   33  A    between atoms: CB_69  and  OG1_70 
REMARK   34  A    between atoms: N_74  and  CA_75 
REMARK   35  A    between atoms: CA_75  and  C_76 
REMARK       I    between atoms: C_76  and  N_80 
REMARK   36  A    between atoms: N_80  and  CA_81 
REMARK   37  A    between atoms: CA_81  and  C_82 
REMARK       I    between atoms: C_82  and  N_86 
REMARK   38  A    between atoms: N_86  and  CA_87 
REMARK   39  A    between atoms: CA_87  and  C_88 
REMARK       I    between atoms: C_88  and  N_91 
REMARK   40  A    between atoms: N_91  and  CA_92 
REMARK   41  A    between atoms: CA_92  and  C_93 
REMARK   42  A    between atoms: CA_92  and  CB_95 
REMARK       I    between atoms: C_93  and  N_100 
REMARK   43  A    between atoms: CB_95  and  CG_96 
REMARK   44  A    between atoms: N_100  and  CA_101 
REMARK   45  A    between atoms: CA_101  and  C_102 
REMARK   46  A    between atoms: CA_101  and  CB_104 
REMARK       I    between atoms: C_102  and  N_109 
REMARK   47  A    between atoms: CB_104  and  CG_105 
REMARK   48  A    between atoms: N_109  and  CA_110 
REMARK   49  A    between atoms: CA_110  and  C_111 
REMARK   50  A    between atoms: CA_110  and  CB_113 
REMARK       I    between atoms: C_111  and  N_117 
REMARK   51  A    between atoms: CB_113  and  OG_114 
REMARK   52  A    between atoms: N_117  and  CA_118 
REMARK   53  A    between atoms: CA_118  and  CB_121 
REMARK   54  A    between atoms: CA_118  and  C_119 
REMARK       I    between atoms: C_119  and  N_128 
REMARK   55  A    between atoms: CB_121  and  CG_122 
REMARK       I    between atoms: CG_122  and  ND2_124 
REMARK   56  A    between atoms: N_128  and  CA_129 
REMARK   57  A    between atoms: CA_129  and  CB_132 
REMARK   58  A    between atoms: CA_129  and  C_130 
REMARK   59  A    between atoms: CB_132  and  CG_133 
ROOT
ATOM      1  N   ILE     1      30.302  32.897  45.027  1.00  0.00    -0.058 N 
ATOM      2  H1  ILE     1      31.105  33.480  45.142  1.00 99.99     0.276 HD
ATOM      3  H2  ILE     1      29.483  33.459  45.139  1.00 99.99     0.276 HD
ATOM      4  H3  ILE     1      30.240  32.238  45.773  1.00 99.99     0.276 HD
ENDROOT
BRANCH   1   5
ATOM      5  CA  ILE     1      30.316  32.219  43.696  1.00  0.00     0.255 C 
BRANCH   5   6
ATOM      6  CB  ILE     1      29.009  32.471  42.910  1.00  0.00     0.037 C 
ATOM      7  CG2 ILE     1      27.855  31.665  43.522  1.00  0.00     0.002 C 
BRANCH   6   8
ATOM      8  CG1 ILE     1      28.711  33.973  42.741  1.00  0.00     0.002 C 
ATOM      9  CD  ILE     1      27.648  34.293  41.683  1.00  0.00     0.000 C 
ENDBRANCH   6   8
ENDBRANCH   5   6
BRANCH   5  10
ATOM     10  C   ILE     1      31.524  32.481  42.749  1.00  0.00     0.259 C 
ATOM     11  O   ILE     1      31.432  32.248  41.541  1.00  0.00    -0.271 OA
ATOM     12  N   LEU     2      32.707  32.736  43.319  1.00  0.00    -0.338 N 
ATOM     13  H   LEU     2      32.860  32.617  44.298  1.00 99.99     0.164 HD
BRANCH  12  14
ATOM     14  CA  LEU     2      33.879  33.234  42.557  1.00  0.00     0.159 C 
BRANCH  14  15
ATOM     15  C   LEU     2      34.288  32.366  41.348  1.00  0.00     0.251 C 
ATOM     16  N   GLY     3      34.522  31.068  41.604  1.00  0.00    -0.336 N 
ATOM     17  H   GLY     3      34.643  30.709  42.535  1.00 99.99     0.164 HD
ATOM     18  O   LEU     2      34.211  32.843  40.216  1.00  0.00    -0.271 OA
BRANCH  16  19
ATOM     19  CA  GLY     3      34.817  30.058  40.561  1.00  0.00     0.189 C 
BRANCH  19  20
ATOM     20  C   GLY     3      33.838  30.097  39.375  1.00  0.00     0.253 C 
ATOM     21  N   LYS     4      32.545  29.932  39.667  1.00  0.00    -0.337 N 
ATOM     22  H   LYS     4      32.235  29.730  40.593  1.00 99.99     0.164 HD
ATOM     23  O   GLY     3      34.240  30.469  38.277  1.00  0.00    -0.270 OA
BRANCH  21  24
ATOM     24  CA  LYS     4      31.470  29.982  38.650  1.00  0.00     0.159 C 
BRANCH  24  25
ATOM     25  C   LYS     4      31.474  31.294  37.840  1.00  0.00     0.251 C 
ATOM     26  O   LYS     4      31.477  31.240  36.613  1.00  0.00    -0.271 OA
ATOM     27  N   LEU     5      31.643  32.431  38.518  1.00  0.00    -0.338 N 
ATOM     28  H   LEU     5      31.725  32.452  39.517  1.00 99.99     0.164 HD
BRANCH  27  29
ATOM     29  CA  LEU     5      31.726  33.748  37.854  1.00  0.00     0.159 C 
BRANCH  29  30
ATOM     30  CB  LEU     5      31.765  34.860  38.912  1.00  0.00     0.032 C 
BRANCH  30  31
ATOM     31  CG  LEU     5      31.696  36.280  38.330  1.00  0.00     0.002 C 
ATOM     32  CD1 LEU     5      30.356  36.558  37.640  1.00  0.00     0.000 C 
ATOM     33  CD2 LEU     5      31.947  37.301  39.440  1.00  0.00     0.000 C 
ENDBRANCH  30  31
ENDBRANCH  29  30
BRANCH  29  34
ATOM     34  C   LEU     5      32.921  33.832  36.885  1.00  0.00     0.251 C 
ATOM     35  N   LEU     6      34.097  33.404  37.350  1.00  0.00    -0.338 N 
ATOM     36  H   LEU     6      34.221  33.140  38.311  1.00 99.99     0.164 HD
ATOM     37  O   LEU     5      32.718  34.101  35.702  1.00  0.00    -0.271 OA
BRANCH  35  38
ATOM     38  CA  LEU     6      35.310  33.301  36.513  1.00  0.00     0.159 C 
BRANCH  38  39
ATOM     39  C   LEU     6      35.135  32.349  35.318  1.00  0.00     0.251 C 
ATOM     40  N   SER     7      34.545  31.177  35.564  1.00  0.00    -0.336 N 
ATOM     41  H   SER     7      34.386  30.852  36.502  1.00 99.99     0.164 HD
ATOM     42  O   LEU     6      35.352  32.772  34.185  1.00  0.00    -0.271 OA
BRANCH  40  43
ATOM     43  CA  SER     7      34.212  30.185  34.516  1.00  0.00     0.189 C 
BRANCH  43  44
ATOM     44  C   SER     7      33.281  30.762  33.439  1.00  0.00     0.254 C 
ATOM     45  O   SER     7      33.634  30.740  32.261  1.00  0.00    -0.270 OA
ATOM     46  N   THR     8      32.182  31.395  33.861  1.00  0.00    -0.336 N 
ATOM     47  H   THR     8      31.896  31.385  34.826  1.00 99.99     0.164 HD
BRANCH  46  48
ATOM     48  CA  THR     8      31.221  32.046  32.940  1.00  0.00     0.186 C 
BRANCH  48  49
ATOM     49  C   THR     8      31.886  33.199  32.167  1.00  0.00     0.253 C 
ATOM     50  N   ALA     9      32.619  34.059  32.878  1.00  0.00    -0.337 N 
ATOM     51  H   ALA     9      32.693  33.996  33.878  1.00 99.99     0.164 HD
ATOM     52  O   THR     8      31.790  33.240  30.942  1.00  0.00    -0.270 OA
BRANCH  50  53
ATOM     53  CA  ALA     9      33.340  35.201  32.275  1.00  0.00     0.159 C 
ATOM     54  CB  ALA     9      34.005  36.039  33.371  1.00  0.00     0.034 C 
BRANCH  53  55
ATOM     55  C   ALA     9      34.370  34.755  31.223  1.00  0.00     0.251 C 
ATOM     56  O   ALA     9      34.232  35.112  30.054  1.00  0.00    -0.271 OA
ATOM     57  N   ALA    10      35.229  33.806  31.605  1.00  0.00    -0.338 N 
ATOM     58  H   ALA    10      35.261  33.471  32.553  1.00 99.99     0.164 HD
BRANCH  57  59
ATOM     59  CA  ALA    10      36.229  33.194  30.705  1.00  0.00     0.159 C 
ATOM     60  CB  ALA    10      37.094  32.199  31.484  1.00  0.00     0.034 C 
BRANCH  59  61
ATOM     61  C   ALA    10      35.569  32.504  29.499  1.00  0.00     0.251 C 
ATOM     62  N   GLY    11      34.496  31.741  29.769  1.00  0.00    -0.336 N 
ATOM     63  H   GLY    11      34.201  31.509  30.708  1.00 99.99     0.164 HD
ATOM     64  O   ALA    10      35.880  32.857  28.365  1.00  0.00    -0.271 OA
BRANCH  62  65
ATOM     65  CA  GLY    11      33.678  31.082  28.726  1.00  0.00     0.189 C 
BRANCH  65  66
ATOM     66  C   GLY    11      33.124  32.084  27.701  1.00  0.00     0.253 C 
ATOM     67  O   GLY    11      33.436  31.994  26.515  1.00  0.00    -0.270 OA
ATOM     68  N   LEU    12      32.473  33.131  28.205  1.00  0.00    -0.337 N 
ATOM     69  H   LEU    12      32.294  33.217  29.191  1.00 99.99     0.164 HD
BRANCH  68  70
ATOM     70  CA  LEU    12      31.921  34.221  27.375  1.00  0.00     0.159 C 
BRANCH  70  71
ATOM     71  C   LEU    12      33.007  34.932  26.539  1.00  0.00     0.251 C 
ATOM     72  O   LEU    12      32.915  34.946  25.312  1.00  0.00    -0.271 OA
ATOM     73  N   LEU    13      34.106  35.310  27.194  1.00  0.00    -0.338 N 
ATOM     74  H   LEU    13      34.197  35.182  28.187  1.00 99.99     0.164 HD
BRANCH  73  75
ATOM     75  CA  LEU    13      35.265  35.971  26.553  1.00  0.00     0.159 C 
BRANCH  75  76
ATOM     76  C   LEU    13      36.043  35.125  25.526  1.00  0.00     0.251 C 
ATOM     77  N   SER    14      36.036  33.805  25.713  1.00  0.00    -0.336 N 
ATOM     78  H   SER    14      35.777  33.412  26.599  1.00 99.99     0.164 HD
ATOM     79  O   LEU    13      36.706  35.687  24.658  1.00  0.00    -0.271 OA
BRANCH  77  80
ATOM     80  CA  SER    14      36.648  32.829  24.780  1.00  0.00     0.189 C 
BRANCH  80  81
ATOM     81  C   SER    14      35.750  32.405  23.605  1.00  0.00     0.254 C 
ATOM     82  O   SER    14      36.246  31.843  22.631  1.00  0.00    -0.270 OA
ATOM     83  N   ASN    15      34.433  32.483  23.806  1.00  0.00    -0.337 N 
ATOM     84  H   ASN    15      34.061  32.642  24.723  1.00 99.99     0.164 HD
BRANCH  83  85
ATOM     85  CA  ASN    15      33.421  32.169  22.769  1.00  0.00     0.169 C 
BRANCH  85  86
ATOM     86  CB  ASN    15      32.125  31.652  23.404  1.00  0.00     0.119 C 
BRANCH  86  87
ATOM     87  CG  ASN    15      32.224  30.305  24.130  1.00  0.00     0.230 C 
ATOM     88  OD1 ASN    15      33.026  29.425  23.855  1.00  0.00    -0.273 OA
ATOM     89  ND2 ASN    15      31.325  30.112  25.069  1.00  0.00    -0.369 N 
ATOM     90 1HD2 ASN    15      31.361  29.244  25.550  1.00 99.99     0.159 HD
ATOM     91 2HD2 ASN    15      30.669  30.828  25.283  1.00 99.99     0.159 HD
ENDBRANCH  86  87
ENDBRANCH  85  86
BRANCH  85  92
ATOM     92  C   ASN    15      33.068  33.345  21.834  1.00  0.00     0.251 C 
ATOM     93  O   ASN    15      32.350  33.168  20.851  1.00  0.00    -0.271 OA
ATOM     94  N   LEU    16      33.363  34.557  22.298  1.00  0.00    -0.336 N 
ATOM     95  H   LEU    16      33.728  34.672  23.222  1.00 99.99     0.164 HD
BRANCH  94  96
ATOM     96  CA  LEU    16      33.142  35.825  21.571  1.00  0.00     0.168 C 
BRANCH  96  97
ATOM     97  CB  LEU    16      33.260  36.938  22.622  1.00  0.00     0.033 C 
BRANCH  97  98
ATOM     98  CG  LEU    16      32.934  38.357  22.143  1.00  0.00     0.002 C 
ATOM     99  CD1 LEU    16      31.451  38.511  21.790  1.00  0.00     0.000 C 
ATOM    100  CD2 LEU    16      33.331  39.357  23.231  1.00  0.00     0.000 C 
ENDBRANCH  97  98
ENDBRANCH  96  97
BRANCH  96 101
ATOM    101  C   LEU    16      34.133  36.040  20.406  1.00  0.00     0.206 C 
ATOM    102  O   LEU    16      33.662  36.379  19.299  1.00 99.99    -0.646 OA
ATOM    103  OXT LEU    16      35.348  35.894  20.663  1.00 99.99    -0.646 OA
ENDBRANCH  96 101
ENDBRANCH  94  96
ENDBRANCH  85  92
ENDBRANCH  83  85
ENDBRANCH  80  81
BRANCH  80 104
ATOM    104  CB  SER    14      37.077  31.553  25.512  1.00  0.00     0.169 C 
BRANCH 104 105
ATOM    105  OG  SER    14      38.069  31.827  26.505  1.00  0.00    -0.380 OA
ATOM    106  HG  SER    14      38.323  30.969  26.947  1.00 99.99     0.211 HD
ENDBRANCH 104 105
ENDBRANCH  80 104
ENDBRANCH  77  80
ENDBRANCH  75  76
BRANCH  75 107
ATOM    107  CB  LEU    13      36.228  36.505  27.621  1.00  0.00     0.032 C 
BRANCH 107 108
ATOM    108  CG  LEU    13      35.665  37.690  28.417  1.00  0.00     0.002 C 
ATOM    109  CD2 LEU    13      35.530  38.943  27.544  1.00  0.00     0.000 C 
ATOM    110  CD1 LEU    13      36.587  37.987  29.600  1.00  0.00     0.000 C 
ENDBRANCH 107 108
ENDBRANCH  75 107
ENDBRANCH  73  75
ENDBRANCH  70  71
BRANCH  70 111
ATOM    111  CB  LEU    12      31.168  35.196  28.293  1.00  0.00     0.032 C 
BRANCH 111 112
ATOM    112  CG  LEU    12      30.355  36.268  27.555  1.00  0.00     0.002 C 
ATOM    113  CD1 LEU    12      29.194  35.661  26.760  1.00  0.00     0.000 C 
ATOM    114  CD2 LEU    12      29.830  37.292  28.563  1.00  0.00     0.000 C 
ENDBRANCH 111 112
ENDBRANCH  70 111
ENDBRANCH  68  70
ENDBRANCH  65  66
ENDBRANCH  62  65
ENDBRANCH  59  61
ENDBRANCH  57  59
ENDBRANCH  53  55
ENDBRANCH  50  53
ENDBRANCH  48  49
BRANCH  48 115
ATOM    115  CB  THR     8      29.964  32.559  33.670  1.00  0.00     0.140 C 
ATOM    116  CG2 THR     8      28.891  33.060  32.694  1.00  0.00     0.034 C 
BRANCH 115 117
ATOM    117  OG1 THR     8      29.396  31.508  34.456  1.00  0.00    -0.382 OA
ATOM    118  HG1 THR     8      28.564  31.844  34.901  1.00 99.99     0.210 HD
ENDBRANCH 115 117
ENDBRANCH  48 115
ENDBRANCH  46  48
ENDBRANCH  43  44
BRANCH  43 119
ATOM    119  CB  SER     7      33.542  28.938  35.107  1.00  0.00     0.169 C 
BRANCH 119 120
ATOM    120  OG  SER     7      34.373  28.319  36.091  1.00  0.00    -0.380 OA
ATOM    121  HG  SER     7      33.919  27.492  36.424  1.00 99.99     0.211 HD
ENDBRANCH 119 120
ENDBRANCH  43 119
ENDBRANCH  40  43
ENDBRANCH  38  39
BRANCH  38 122
ATOM    122  CB  LEU     6      36.526  32.885  37.351  1.00  0.00     0.032 C 
BRANCH 122 123
ATOM    123  CG  LEU     6      36.986  33.961  38.346  1.00  0.00     0.002 C 
ATOM    124  CD2 LEU     6      37.536  35.199  37.627  1.00  0.00     0.000 C 
ATOM    125  CD1 LEU     6      38.066  33.380  39.259  1.00  0.00     0.000 C 
ENDBRANCH 122 123
ENDBRANCH  38 122
ENDBRANCH  35  38
ENDBRANCH  29  34
ENDBRANCH  27  29
ENDBRANCH  24  25
BRANCH  24 126
ATOM    126  CB  LYS     4      30.097  29.745  39.300  1.00  0.00     0.032 C 
BRANCH 126 127
ATOM    127  CG  LYS     4      28.999  29.562  38.244  1.00  0.00     0.004 C 
BRANCH 127 128
ATOM    128  CD  LYS     4      27.613  29.310  38.841  1.00  0.00     0.032 C 
BRANCH 128 129
ATOM    129  CE  LYS     4      26.590  29.142  37.713  1.00  0.00     0.206 C 
BRANCH 129 130
ATOM    130  NZ  LYS     4      25.240  28.844  38.217  1.00  0.00    -0.064 N 
ATOM    131  HZ1 LYS     4      24.613  28.742  37.444  1.00 99.99     0.275 HD
ATOM    132  HZ2 LYS     4      25.255  27.991  38.739  1.00 99.99     0.275 HD
ATOM    133  HZ3 LYS     4      24.922  29.590  38.802  1.00 99.99     0.275 HD
ENDBRANCH 129 130
ENDBRANCH 128 129
ENDBRANCH 127 128
ENDBRANCH 126 127
ENDBRANCH  24 126
ENDBRANCH  21  24
ENDBRANCH  19  20
ENDBRANCH  16  19
ENDBRANCH  14  15
BRANCH  14 134
ATOM    134  CB  LEU     2      35.057  33.485  43.512  1.00  0.00     0.032 C 
BRANCH 134 135
ATOM    135  CG  LEU     2      36.224  34.257  42.877  1.00  0.00     0.002 C 
ATOM    136  CD2 LEU     2      37.409  34.291  43.844  1.00  0.00     0.000 C 
ATOM    137  CD1 LEU     2      35.824  35.683  42.481  1.00  0.00     0.000 C 
ENDBRANCH 134 135
ENDBRANCH  14 134
ENDBRANCH  12  14
ENDBRANCH   5  10
ENDBRANCH   1   5
TORSDOF 59
