REMARK WARNING: 32 MAX_TORS EXCEEDED!!!
REMARK  37 active torsions:
REMARK  status: ('A' for Active; 'I' for Inactive)
REMARK    1  A    between atoms: N_1  and  CA_2 
REMARK    2  A    between atoms: CA_2  and  CB_5 
REMARK    3  A    between atoms: CA_2  and  C_3 
REMARK       I    between atoms: C_3  and  N_20 
REMARK    4  A    between atoms: CB_5  and  CG_6 
REMARK    5  A    between atoms: CG_6  and  CD_7 
REMARK    6  A    between atoms: CD_7  and  NE_8 
REMARK       I    between atoms: NE_8  and  CZ_9 
REMARK       I    between atoms: CZ_9  and  NH2_11 
REMARK       I    between atoms: CZ_9  and  NH1_10 
REMARK    7  A    between atoms: N_20  and  CA_21 
REMARK    8  A    between atoms: CA_21  and  CB_24 
REMARK    9  A    between atoms: CA_21  and  C_22 
REMARK       I    between atoms: C_22  and  N_29 
REMARK   10  A    between atoms: CB_24  and  CG1_25 
REMARK   11  A    between atoms: N_29  and  CA_30 
REMARK   12  A    between atoms: CA_30  and  C_31 
REMARK   13  A    between atoms: CA_30  and  CB_33 
REMARK       I    between atoms: C_31  and  N_45 
REMARK   14  A    between atoms: CB_33  and  CG_34 
REMARK   15  A    between atoms: N_45  and  CA_46 
REMARK   16  A    between atoms: CA_46  and  CB_49 
REMARK   17  A    between atoms: CA_46  and  C_47 
REMARK       I    between atoms: C_47  and  N_53 
REMARK   18  A    between atoms: N_53  and  CA_54 
REMARK   19  A    between atoms: CA_54  and  C_55 
REMARK   20  A    between atoms: CA_54  and  CB_57 
REMARK       I    between atoms: C_55  and  N_62 
REMARK   21  A    between atoms: CB_57  and  CG1_58 
REMARK   22  A    between atoms: N_62  and  CA_63 
REMARK   23  A    between atoms: CA_63  and  C_64 
REMARK   24  A    between atoms: CA_63  and  CB_66 
REMARK       I    between atoms: C_64  and  N_78 
REMARK   25  A    between atoms: CB_66  and  CG_67 
REMARK   26  A    between atoms: N_78  and  CA_79 
REMARK   27  A    between atoms: CA_79  and  CB_82 
REMARK   28  A    between atoms: CA_79  and  C_80 
REMARK       I    between atoms: C_80  and  N_95 
REMARK   29  A    between atoms: CB_82  and  CG_83 
REMARK   30  A    between atoms: CG_83  and  CD_84 
REMARK   31  A    between atoms: CD_84  and  NE_85 
REMARK       I    between atoms: NE_85  and  CZ_86 
REMARK       I    between atoms: CZ_86  and  NH1_87 
REMARK       I    between atoms: CZ_86  and  NH2_88 
REMARK   32  A    between atoms: N_95  and  CA_96 
REMARK   33  A    between atoms: CA_96  and  CB_99 
REMARK   34  A    between atoms: CA_96  and  C_97 
REMARK   35  A    between atoms: CB_99  and  CG_100 
REMARK   36  A    between atoms: CG_100  and  CD_101 
REMARK   37  A    between atoms: CD_101  and  NE_102 
REMARK       I    between atoms: NE_102  and  CZ_103 
REMARK       I    between atoms: CZ_103  and  NH1_104 
ROOT
ATOM      1  N   ARG     1      29.992  20.790  29.559  1.00  0.00    -0.058 N 
ATOM      2  H1  ARG     1      29.798  21.162  28.657  1.00 99.99     0.276 HD
ATOM      3  H2  ARG     1      30.783  20.207  29.496  1.00 99.99     0.276 HD
ATOM      4  H3  ARG     1      29.253  20.202  29.847  1.00 99.99     0.276 HD
ENDROOT
BRANCH   1   5
ATOM      5  CA  ARG     1      30.224  21.950  30.485  1.00  0.00     0.255 C 
BRANCH   5   6
ATOM      6  CB  ARG     1      31.642  21.899  31.067  1.00  0.00     0.042 C 
BRANCH   6   7
ATOM      7  CG  ARG     1      31.933  23.014  32.095  1.00  0.00     0.027 C 
BRANCH   7   8
ATOM      8  CD  ARG     1      33.369  22.997  32.640  1.00  0.00     0.116 C 
BRANCH   8   9
ATOM      9  NE  ARG     1      34.353  23.515  31.671  1.00  0.00    -0.212 N 
ATOM     10  HE  ARG     1      33.969  23.939  30.851  1.00 99.99     0.178 HD
ATOM     11  CZ  ARG     1      35.686  23.495  31.805  1.00  0.00     0.666 C 
ATOM     12  NH2 ARG     1      36.470  23.969  30.843  1.00  0.00    -0.235 N 
ATOM     13  NH1 ARG     1      36.284  22.983  32.873  1.00  0.00    -0.235 N 
ATOM     14 2HH2 ARG     1      36.078  24.346  30.005  1.00 99.99     0.174 HD
ATOM     15 1HH2 ARG     1      37.459  23.935  30.957  1.00 99.99     0.174 HD
ATOM     16 1HH1 ARG     1      37.275  22.971  32.944  1.00 99.99     0.174 HD
ATOM     17 2HH1 ARG     1      35.719  22.596  33.605  1.00 99.99     0.174 HD
ENDBRANCH   8   9
ENDBRANCH   7   8
ENDBRANCH   6   7
ENDBRANCH   5   6
BRANCH   5  18
ATOM     18  C   ARG     1      30.035  23.262  29.690  1.00  0.00     0.259 C 
ATOM     19  N   ILE     2      29.182  24.147  30.198  1.00  0.00    -0.338 N 
ATOM     20  H   ILE     2      28.671  23.988  31.043  1.00 99.99     0.164 HD
ATOM     21  O   ARG     1      30.575  23.403  28.595  1.00  0.00    -0.271 OA
BRANCH  19  22
ATOM     22  CA  ILE     2      28.949  25.483  29.601  1.00  0.00     0.159 C 
BRANCH  22  23
ATOM     23  CB  ILE     2      27.497  25.580  29.061  1.00  0.00     0.029 C 
ATOM     24  CG2 ILE     2      27.261  26.939  28.382  1.00  0.00     0.002 C 
BRANCH  23  25
ATOM     25  CG1 ILE     2      27.172  24.442  28.076  1.00  0.00     0.002 C 
ATOM     26  CD  ILE     2      25.675  24.269  27.774  1.00  0.00     0.000 C 
ENDBRANCH  23  25
ENDBRANCH  22  23
BRANCH  22  27
ATOM     27  C   ILE     2      29.203  26.526  30.703  1.00  0.00     0.251 C 
ATOM     28  O   ILE     2      28.970  26.252  31.881  1.00  0.00    -0.271 OA
ATOM     29  N   TRP     3      29.741  27.684  30.320  1.00  0.00    -0.337 N 
ATOM     30  H   TRP     3      30.146  27.815  29.418  1.00 99.99     0.164 HD
BRANCH  29  31
ATOM     31  CA  TRP     3      29.812  28.856  31.217  1.00  0.00     0.164 C 
BRANCH  31  32
ATOM     32  C   TRP     3      28.804  29.904  30.728  1.00  0.00     0.251 C 
ATOM     33  O   TRP     3      28.781  30.228  29.537  1.00  0.00    -0.271 OA
ATOM     34  N   VAL     4      28.075  30.524  31.655  1.00  0.00    -0.338 N 
ATOM     35  H   VAL     4      28.158  30.316  32.630  1.00 99.99     0.164 HD
BRANCH  34  36
ATOM     36  CA  VAL     4      27.035  31.527  31.306  1.00  0.00     0.159 C 
BRANCH  36  37
ATOM     37  CB  VAL     4      25.835  31.458  32.285  1.00  0.00     0.029 C 
ATOM     38  CG2 VAL     4      25.323  30.024  32.472  1.00  0.00     0.002 C 
ATOM     39  CG1 VAL     4      24.651  32.305  31.799  1.00  0.00     0.002 C 
ENDBRANCH  36  37
BRANCH  36  40
ATOM     40  C   VAL     4      27.648  32.937  31.110  1.00  0.00     0.251 C 
ATOM     41  O   VAL     4      27.252  33.935  31.708  1.00  0.00    -0.271 OA
ATOM     42  N   ILE     5      28.785  32.895  30.425  1.00  0.00    -0.338 N 
ATOM     43  H   ILE     5      29.120  31.995  30.155  1.00 99.99     0.164 HD
BRANCH  42  44
ATOM     44  CA  ILE     5      29.606  34.012  29.907  1.00  0.00     0.159 C 
BRANCH  44  45
ATOM     45  C   ILE     5      29.858  33.689  28.419  1.00  0.00     0.251 C 
ATOM     46  O   ILE     5      29.483  34.454  27.533  1.00  0.00    -0.271 OA
ATOM     47  N   TRP     6      30.356  32.471  28.172  1.00  0.00    -0.337 N 
ATOM     48  H   TRP     6      30.813  31.940  28.883  1.00 99.99     0.164 HD
BRANCH  47  49
ATOM     49  CA  TRP     6      30.463  31.847  26.835  1.00  0.00     0.164 C 
BRANCH  49  50
ATOM     50  C   TRP     6      29.115  31.592  26.136  1.00  0.00     0.251 C 
ATOM     51  N   ARG     7      28.047  31.513  26.931  1.00  0.00    -0.338 N 
ATOM     52  H   ARG     7      28.152  31.366  27.915  1.00 99.99     0.164 HD
ATOM     53  O   TRP     6      29.083  31.279  24.946  1.00  0.00    -0.271 OA
BRANCH  51  54
ATOM     54  CA  ARG     7      26.664  31.403  26.437  1.00  0.00     0.159 C 
BRANCH  54  55
ATOM     55  CB  ARG     7      25.962  30.295  27.241  1.00  0.00     0.034 C 
BRANCH  55  56
ATOM     56  CG  ARG     7      24.673  29.813  26.564  1.00  0.00     0.027 C 
BRANCH  56  57
ATOM     57  CD  ARG     7      23.624  29.307  27.566  1.00  0.00     0.116 C 
BRANCH  57  58
ATOM     58  NE  ARG     7      23.152  30.357  28.491  1.00  0.00    -0.212 N 
ATOM     59  HE  ARG     7      23.476  30.259  29.429  1.00 99.99     0.178 HD
ATOM     60  CZ  ARG     7      22.390  31.426  28.224  1.00  0.00     0.666 C 
ATOM     61  NH1 ARG     7      21.952  31.721  27.006  1.00  0.00    -0.235 N 
ATOM     62  NH2 ARG     7      21.971  32.204  29.216  1.00  0.00    -0.235 N 
ATOM     63 2HH1 ARG     7      22.243  31.150  26.235  1.00 99.99     0.174 HD
ATOM     64 1HH1 ARG     7      21.412  32.539  26.847  1.00 99.99     0.174 HD
ATOM     65 2HH2 ARG     7      22.202  31.986  30.162  1.00 99.99     0.174 HD
ATOM     66 1HH2 ARG     7      21.414  33.001  29.006  1.00 99.99     0.174 HD
ENDBRANCH  57  58
ENDBRANCH  56  57
ENDBRANCH  55  56
ENDBRANCH  54  55
BRANCH  54  67
ATOM     67  C   ARG     7      25.914  32.752  26.549  1.00  0.00     0.251 C 
ATOM     68  O   ARG     7      24.730  32.824  26.866  1.00  0.00    -0.271 OA
ATOM     69  N   ARG     8      26.637  33.857  26.396  1.00  0.00    -0.336 N 
ATOM     70  H   ARG     8      27.634  33.835  26.289  1.00 99.99     0.164 HD
BRANCH  69  71
ATOM     71  CA  ARG     8      26.032  35.207  26.357  1.00  0.00     0.168 C 
BRANCH  71  72
ATOM     72  CB  ARG     8      26.408  36.021  27.597  1.00  0.00     0.035 C 
BRANCH  72  73
ATOM     73  CG  ARG     8      25.643  35.618  28.855  1.00  0.00     0.027 C 
BRANCH  73  74
ATOM     74  CD  ARG     8      26.031  36.590  29.965  1.00  0.00     0.116 C 
BRANCH  74  75
ATOM     75  NE  ARG     8      25.236  36.315  31.173  1.00  0.00    -0.212 N 
ATOM     76  HE  ARG     8      24.602  35.553  31.098  1.00 99.99     0.178 HD
ATOM     77  CZ  ARG     8      25.349  36.953  32.343  1.00  0.00     0.666 C 
ATOM     78  NH1 ARG     8      26.250  37.907  32.538  1.00  0.00    -0.235 N 
ATOM     79  NH2 ARG     8      24.500  36.688  33.324  1.00  0.00    -0.235 N 
ATOM     80 1HH1 ARG     8      26.324  38.370  33.413  1.00 99.99     0.174 HD
ATOM     81 2HH1 ARG     8      26.862  38.144  31.780  1.00 99.99     0.174 HD
ATOM     82 2HH2 ARG     8      23.771  36.020  33.193  1.00 99.99     0.174 HD
ATOM     83 1HH2 ARG     8      24.591  37.168  34.194  1.00 99.99     0.174 HD
ENDBRANCH  74  75
ENDBRANCH  73  74
ENDBRANCH  72  73
ENDBRANCH  71  72
BRANCH  71  84
ATOM     84  C   ARG     8      26.498  35.991  25.128  1.00  0.00     0.206 C 
ATOM     85  O   ARG     8      25.630  36.521  24.397  1.00 99.99    -0.646 OA
ATOM     86  OXT ARG     8      27.728  35.972  24.926  1.00 99.99    -0.646 OA
ENDBRANCH  71  84
ENDBRANCH  69  71
ENDBRANCH  54  67
ENDBRANCH  51  54
ENDBRANCH  49  50
BRANCH  49  87
ATOM     87  CB  TRP     6      31.193  30.506  26.949  1.00  0.00     0.059 C 
BRANCH  87  88
ATOM     88  CG  TRP     6      32.629  30.573  27.488  1.00  0.00    -0.016 A 
ATOM     89  CD2 TRP     6      33.377  29.468  27.833  1.00  0.00    -0.001 A 
ATOM     90  CE2 TRP     6      34.664  29.910  28.075  1.00  0.00     0.042 A 
ATOM     91  CE3 TRP     6      33.061  28.115  27.927  1.00  0.00     0.014 A 
ATOM     92  CZ2 TRP     6      35.654  29.001  28.413  1.00  0.00     0.030 A 
ATOM     93  NE1 TRP     6      34.662  31.233  27.894  1.00  0.00    -0.365 N 
ATOM     94  CH2 TRP     6      35.349  27.646  28.516  1.00  0.00     0.002 A 
ATOM     95  CZ3 TRP     6      34.052  27.201  28.275  1.00  0.00     0.001 A 
ATOM     96  HE1 TRP     6      35.462  31.830  27.972  1.00 99.99     0.165 HD
ATOM     97  CD1 TRP     6      33.440  31.629  27.547  1.00  0.00     0.097 A 
ENDBRANCH  87  88
ENDBRANCH  49  87
ENDBRANCH  47  49
ENDBRANCH  44  45
BRANCH  44  98
ATOM     98  CB  ILE     5      30.915  34.136  30.721  1.00  0.00     0.029 C 
ATOM     99  CG2 ILE     5      31.831  35.223  30.130  1.00  0.00     0.002 C 
BRANCH  98 100
ATOM    100  CG1 ILE     5      30.615  34.430  32.204  1.00  0.00     0.002 C 
ATOM    101  CD  ILE     5      31.806  34.229  33.152  1.00  0.00     0.000 C 
ENDBRANCH  98 100
ENDBRANCH  44  98
ENDBRANCH  42  44
ENDBRANCH  36  40
ENDBRANCH  34  36
ENDBRANCH  31  32
BRANCH  31 102
ATOM    102  CB  TRP     3      31.219  29.466  31.215  1.00  0.00     0.059 C 
BRANCH 102 103
ATOM    103  CG  TRP     3      32.339  28.608  31.835  1.00  0.00    -0.016 A 
ATOM    104  CD2 TRP     3      33.674  28.947  31.847  1.00  0.00    -0.001 A 
ATOM    105  CE3 TRP     3      34.360  30.055  31.362  1.00  0.00     0.014 A 
ATOM    106  CE2 TRP     3      34.343  27.974  32.573  1.00  0.00     0.042 A 
ATOM    107  CZ3 TRP     3      35.731  30.186  31.603  1.00  0.00     0.001 A 
ATOM    108  CH2 TRP     3      36.396  29.200  32.322  1.00  0.00     0.002 A 
ATOM    109  CZ2 TRP     3      35.709  28.100  32.807  1.00  0.00     0.030 A 
ATOM    110  NE1 TRP     3      33.421  27.098  32.980  1.00  0.00    -0.365 N 
ATOM    111  HE1 TRP     3      33.593  26.314  33.578  1.00 99.99     0.165 HD
ATOM    112  CD1 TRP     3      32.223  27.475  32.533  1.00  0.00     0.097 A 
ENDBRANCH 102 103
ENDBRANCH  31 102
ENDBRANCH  29  31
ENDBRANCH  22  27
ENDBRANCH  19  22
ENDBRANCH   5  18
ENDBRANCH   1   5
TORSDOF 37
