REMARK WARNING: 32 MAX_TORS EXCEEDED!!!
REMARK  39 active torsions:
REMARK  status: ('A' for Active; 'I' for Inactive)
REMARK    1  A    between atoms: N_1  and  CA_2 
REMARK    2  A    between atoms: CA_2  and  CB_5 
REMARK    3  A    between atoms: CA_2  and  C_3 
REMARK       I    between atoms: C_3  and  N_20 
REMARK    4  A    between atoms: CB_5  and  CG_6 
REMARK    5  A    between atoms: CG_6  and  CD_7 
REMARK    6  A    between atoms: CD_7  and  NE_8 
REMARK       I    between atoms: NE_8  and  CZ_9 
REMARK       I    between atoms: CZ_9  and  NH2_11 
REMARK       I    between atoms: CZ_9  and  NH1_10 
REMARK    7  A    between atoms: N_20  and  CA_21 
REMARK    8  A    between atoms: CA_21  and  C_22 
REMARK    9  A    between atoms: CA_21  and  CB_24 
REMARK       I    between atoms: C_22  and  N_37 
REMARK   10  A    between atoms: CB_24  and  CG_25 
REMARK   11  A    between atoms: CG_25  and  CD_26 
REMARK   12  A    between atoms: CD_26  and  NE_27 
REMARK       I    between atoms: NE_27  and  CZ_28 
REMARK       I    between atoms: CZ_28  and  NH2_30 
REMARK       I    between atoms: CZ_28  and  NH1_29 
REMARK   13  A    between atoms: N_37  and  CA_38 
REMARK   14  A    between atoms: CA_38  and  C_39 
REMARK   15  A    between atoms: CA_38  and  CB_41 
REMARK       I    between atoms: C_39  and  N_53 
REMARK   16  A    between atoms: CB_41  and  CG_42 
REMARK   17  A    between atoms: N_53  and  CA_54 
REMARK   18  A    between atoms: CA_54  and  CB_57 
REMARK   19  A    between atoms: CA_54  and  C_55 
REMARK       I    between atoms: C_55  and  N_61 
REMARK   20  A    between atoms: N_61  and  CA_62 
REMARK   21  A    between atoms: CA_62  and  CB_65 
REMARK   22  A    between atoms: CA_62  and  C_63 
REMARK       I    between atoms: C_63  and  N_70 
REMARK   23  A    between atoms: CB_65  and  CG1_66 
REMARK   24  A    between atoms: N_70  and  CA_71 
REMARK   25  A    between atoms: CA_71  and  CB_74 
REMARK   26  A    between atoms: CA_71  and  C_72 
REMARK       I    between atoms: C_72  and  N_86 
REMARK   27  A    between atoms: CB_74  and  CG_75 
REMARK   28  A    between atoms: N_86  and  CA_87 
REMARK   29  A    between atoms: CA_87  and  CB_90 
REMARK   30  A    between atoms: CA_87  and  C_88 
REMARK       I    between atoms: C_88  and  N_103 
REMARK   31  A    between atoms: CB_90  and  CG_91 
REMARK   32  A    between atoms: CG_91  and  CD_92 
REMARK   33  A    between atoms: CD_92  and  NE_93 
REMARK       I    between atoms: NE_93  and  CZ_94 
REMARK       I    between atoms: CZ_94  and  NH2_96 
REMARK       I    between atoms: CZ_94  and  NH1_95 
REMARK   34  A    between atoms: N_103  and  CA_104 
REMARK   35  A    between atoms: CA_104  and  CB_107 
REMARK   36  A    between atoms: CA_104  and  C_105 
REMARK   37  A    between atoms: CB_107  and  CG_108 
REMARK   38  A    between atoms: CG_108  and  CD_109 
REMARK   39  A    between atoms: CD_109  and  NE_110 
REMARK       I    between atoms: NE_110  and  CZ_111 
REMARK       I    between atoms: CZ_111  and  NH1_112 
ROOT
ATOM      1  N   ARG     1      23.993  35.465  26.886  1.00  0.00    -0.058 N 
ATOM      2  H1  ARG     1      24.853  35.874  27.204  1.00 99.99     0.276 HD
ATOM      3  H2  ARG     1      23.899  35.659  25.921  1.00 99.99     0.276 HD
ATOM      4  H3  ARG     1      23.237  35.929  27.318  1.00 99.99     0.276 HD
ENDROOT
BRANCH   1   5
ATOM      5  CA  ARG     1      24.057  34.011  27.185  1.00  0.00     0.255 C 
BRANCH   5   6
ATOM      6  CB  ARG     1      23.967  33.237  25.853  1.00  0.00     0.042 C 
BRANCH   6   7
ATOM      7  CG  ARG     1      24.000  31.699  25.920  1.00  0.00     0.027 C 
BRANCH   7   8
ATOM      8  CD  ARG     1      22.637  31.056  26.195  1.00  0.00     0.116 C 
BRANCH   8   9
ATOM      9  NE  ARG     1      22.747  29.582  26.139  1.00  0.00    -0.212 N 
ATOM     10  CZ  ARG     1      22.187  28.767  25.236  1.00  0.00     0.666 C 
ATOM     11  NH2 ARG     1      22.256  27.451  25.389  1.00  0.00    -0.235 N 
ATOM     12  NH1 ARG     1      21.487  29.225  24.205  1.00  0.00    -0.235 N 
ATOM     13 1HH2 ARG     1      21.831  26.855  24.710  1.00 99.99     0.174 HD
ATOM     14 2HH2 ARG     1      22.734  27.054  26.169  1.00 99.99     0.174 HD
ATOM     15 1HH1 ARG     1      21.080  28.590  23.551  1.00 99.99     0.174 HD
ATOM     16 2HH1 ARG     1      21.375  30.209  24.094  1.00 99.99     0.174 HD
ATOM     17  HE  ARG     1      23.313  29.171  26.851  1.00 99.99     0.178 HD
ENDBRANCH   8   9
ENDBRANCH   7   8
ENDBRANCH   6   7
ENDBRANCH   5   6
BRANCH   5  18
ATOM     18  C   ARG     1      25.406  33.707  27.884  1.00  0.00     0.259 C 
ATOM     19  O   ARG     1      26.395  34.388  27.612  1.00  0.00    -0.271 OA
ATOM     20  N   ARG     2      25.423  32.788  28.851  1.00  0.00    -0.338 N 
ATOM     21  H   ARG     2      24.599  32.369  29.229  1.00 99.99     0.164 HD
BRANCH  20  22
ATOM     22  CA  ARG     2      26.685  32.328  29.471  1.00  0.00     0.159 C 
BRANCH  22  23
ATOM     23  C   ARG     2      26.825  30.809  29.290  1.00  0.00     0.251 C 
ATOM     24  N   TRP     3      27.820  30.430  28.492  1.00  0.00    -0.337 N 
ATOM     25  H   TRP     3      28.369  31.096  27.991  1.00 99.99     0.164 HD
ATOM     26  O   ARG     2      25.932  30.054  29.670  1.00  0.00    -0.271 OA
BRANCH  24  27
ATOM     27  CA  TRP     3      28.189  29.015  28.265  1.00  0.00     0.164 C 
BRANCH  27  28
ATOM     28  C   TRP     3      29.352  28.601  29.187  1.00  0.00     0.251 C 
ATOM     29  N   VAL     4      29.639  27.299  29.216  1.00  0.00    -0.338 N 
ATOM     30  H   VAL     4      29.233  26.675  28.550  1.00 99.99     0.164 HD
ATOM     31  O   TRP     3      30.110  29.450  29.653  1.00  0.00    -0.271 OA
BRANCH  29  32
ATOM     32  CA  VAL     4      30.533  26.644  30.208  1.00  0.00     0.159 C 
BRANCH  32  33
ATOM     33  CB  VAL     4      30.742  25.153  29.853  1.00  0.00     0.029 C 
ATOM     34  CG2 VAL     4      29.404  24.412  29.725  1.00  0.00     0.002 C 
ATOM     35  CG1 VAL     4      31.587  24.412  30.898  1.00  0.00     0.002 C 
ENDBRANCH  32  33
BRANCH  32  36
ATOM     36  C   VAL     4      31.853  27.403  30.495  1.00  0.00     0.251 C 
ATOM     37  N   ILE     5      32.802  27.382  29.559  1.00  0.00    -0.338 N 
ATOM     38  H   ILE     5      32.698  26.890  28.697  1.00 99.99     0.164 HD
ATOM     39  O   VAL     4      31.955  28.071  31.523  1.00  0.00    -0.271 OA
BRANCH  37  40
ATOM     40  CA  ILE     5      34.129  28.028  29.730  1.00  0.00     0.159 C 
BRANCH  40  41
ATOM     41  CB  ILE     5      35.201  27.330  28.871  1.00  0.00     0.029 C 
ATOM     42  CG2 ILE     5      35.513  25.951  29.476  1.00  0.00     0.002 C 
BRANCH  41  43
ATOM     43  CG1 ILE     5      34.809  27.280  27.382  1.00  0.00     0.002 C 
ATOM     44  CD  ILE     5      35.937  26.843  26.440  1.00  0.00     0.000 C 
ENDBRANCH  41  43
ENDBRANCH  40  41
BRANCH  40  45
ATOM     45  C   ILE     5      34.166  29.565  29.562  1.00  0.00     0.251 C 
ATOM     46  O   ILE     5      35.210  30.155  29.294  1.00  0.00    -0.271 OA
ATOM     47  N   TRP     6      32.985  30.168  29.666  1.00  0.00    -0.337 N 
ATOM     48  H   TRP     6      32.132  29.658  29.574  1.00 99.99     0.164 HD
BRANCH  47  49
ATOM     49  CA  TRP     6      32.775  31.623  29.791  1.00  0.00     0.164 C 
BRANCH  49  50
ATOM     50  CB  TRP     6      32.018  32.141  28.561  1.00  0.00     0.059 C 
BRANCH  50  51
ATOM     51  CG  TRP     6      32.810  31.992  27.261  1.00  0.00    -0.016 A 
ATOM     52  CD2 TRP     6      32.715  30.953  26.350  1.00  0.00    -0.001 A 
ATOM     53  CE3 TRP     6      31.997  29.768  26.347  1.00  0.00     0.014 A 
ATOM     54  CE2 TRP     6      33.552  31.278  25.294  1.00  0.00     0.042 A 
ATOM     55  CZ3 TRP     6      32.108  28.897  25.271  1.00  0.00     0.001 A 
ATOM     56  CH2 TRP     6      32.932  29.224  24.200  1.00  0.00     0.002 A 
ATOM     57  CZ2 TRP     6      33.657  30.411  24.212  1.00  0.00     0.030 A 
ATOM     58  NE1 TRP     6      34.124  32.445  25.588  1.00  0.00    -0.365 N 
ATOM     59  CD1 TRP     6      33.677  32.871  26.770  1.00  0.00     0.097 A 
ATOM     60  HE1 TRP     6      34.802  32.921  25.027  1.00 99.99     0.165 HD
ENDBRANCH  50  51
ENDBRANCH  49  50
BRANCH  49  61
ATOM     61  C   TRP     6      31.974  31.975  31.061  1.00  0.00     0.251 C 
ATOM     62  N   ARG     7      31.631  30.958  31.853  1.00  0.00    -0.338 N 
ATOM     63  H   ARG     7      31.786  30.013  31.565  1.00 99.99     0.164 HD
ATOM     64  O   TRP     6      31.581  33.123  31.241  1.00  0.00    -0.271 OA
BRANCH  62  65
ATOM     65  CA  ARG     7      30.917  31.076  33.144  1.00  0.00     0.159 C 
BRANCH  65  66
ATOM     66  CB  ARG     7      29.538  30.421  33.014  1.00  0.00     0.034 C 
BRANCH  66  67
ATOM     67  CG  ARG     7      28.619  30.866  34.159  1.00  0.00     0.027 C 
BRANCH  67  68
ATOM     68  CD  ARG     7      27.519  29.849  34.481  1.00  0.00     0.116 C 
BRANCH  68  69
ATOM     69  NE  ARG     7      28.051  28.511  34.823  1.00  0.00    -0.212 N 
ATOM     70  CZ  ARG     7      28.736  28.123  35.907  1.00  0.00     0.666 C 
ATOM     71  NH2 ARG     7      28.961  26.831  36.102  1.00  0.00    -0.235 N 
ATOM     72  NH1 ARG     7      29.112  28.953  36.871  1.00  0.00    -0.235 N 
ATOM     73 2HH2 ARG     7      28.604  26.156  35.462  1.00 99.99     0.174 HD
ATOM     74 1HH2 ARG     7      29.465  26.542  36.914  1.00 99.99     0.174 HD
ATOM     75 1HH1 ARG     7      29.629  28.618  37.655  1.00 99.99     0.174 HD
ATOM     76 2HH1 ARG     7      28.940  29.932  36.770  1.00 99.99     0.174 HD
ATOM     77  HE  ARG     7      27.898  27.827  34.115  1.00 99.99     0.178 HD
ENDBRANCH  68  69
ENDBRANCH  67  68
ENDBRANCH  66  67
ENDBRANCH  65  66
BRANCH  65  78
ATOM     78  C   ARG     7      31.719  30.450  34.310  1.00  0.00     0.251 C 
ATOM     79  O   ARG     7      31.347  30.540  35.478  1.00  0.00    -0.271 OA
ATOM     80  N   ARG     8      32.784  29.731  33.965  1.00  0.00    -0.336 N 
ATOM     81  H   ARG     8      32.960  29.479  33.015  1.00 99.99     0.164 HD
BRANCH  80  82
ATOM     82  CA  ARG     8      33.827  29.299  34.919  1.00  0.00     0.168 C 
BRANCH  82  83
ATOM     83  CB  ARG     8      34.400  27.940  34.512  1.00  0.00     0.035 C 
BRANCH  83  84
ATOM     84  CG  ARG     8      33.413  26.778  34.581  1.00  0.00     0.027 C 
BRANCH  84  85
ATOM     85  CD  ARG     8      34.139  25.513  34.128  1.00  0.00     0.116 C 
BRANCH  85  86
ATOM     86  NE  ARG     8      33.245  24.357  34.292  1.00  0.00    -0.212 N 
ATOM     87  HE  ARG     8      32.365  24.566  34.710  1.00 99.99     0.178 HD
ATOM     88  CZ  ARG     8      33.525  23.089  33.981  1.00  0.00     0.666 C 
ATOM     89  NH1 ARG     8      34.699  22.726  33.480  1.00  0.00    -0.235 N 
ATOM     90  NH2 ARG     8      32.598  22.156  34.137  1.00  0.00    -0.235 N 
ATOM     91 2HH1 ARG     8      35.401  23.421  33.341  1.00 99.99     0.174 HD
ATOM     92 1HH1 ARG     8      34.883  21.770  33.258  1.00 99.99     0.174 HD
ATOM     93 2HH2 ARG     8      31.696  22.394  34.489  1.00 99.99     0.174 HD
ATOM     94 1HH2 ARG     8      32.811  21.209  33.904  1.00 99.99     0.174 HD
ENDBRANCH  85  86
ENDBRANCH  84  85
ENDBRANCH  83  84
ENDBRANCH  82  83
BRANCH  82  95
ATOM     95  C   ARG     8      34.982  30.305  34.825  1.00  0.00     0.206 C 
ATOM     96  O   ARG     8      35.394  30.840  35.876  1.00 99.99    -0.646 OA
ATOM     97  OXT ARG     8      35.341  30.579  33.657  1.00 99.99    -0.646 OA
ENDBRANCH  82  95
ENDBRANCH  80  82
ENDBRANCH  65  78
ENDBRANCH  62  65
ENDBRANCH  49  61
ENDBRANCH  47  49
ENDBRANCH  40  45
ENDBRANCH  37  40
ENDBRANCH  32  36
ENDBRANCH  29  32
ENDBRANCH  27  28
BRANCH  27  98
ATOM     98  CB  TRP     3      28.583  28.795  26.799  1.00  0.00     0.059 C 
BRANCH  98  99
ATOM     99  CG  TRP     3      27.454  29.032  25.795  1.00  0.00    -0.016 A 
ATOM    100  CD2 TRP     3      26.559  28.075  25.339  1.00  0.00    -0.001 A 
ATOM    101  CE3 TRP     3      26.261  26.792  25.773  1.00  0.00     0.014 A 
ATOM    102  CE2 TRP     3      26.015  28.564  24.162  1.00  0.00     0.042 A 
ATOM    103  CZ3 TRP     3      25.429  25.981  25.014  1.00  0.00     0.001 A 
ATOM    104  CH2 TRP     3      24.896  26.458  23.822  1.00  0.00     0.002 A 
ATOM    105  CZ2 TRP     3      25.175  27.755  23.403  1.00  0.00     0.030 A 
ATOM    106  NE1 TRP     3      26.550  29.764  23.950  1.00  0.00    -0.365 N 
ATOM    107  HE1 TRP     3      26.389  30.339  23.147  1.00 99.99     0.165 HD
ATOM    108  CD1 TRP     3      27.402  30.047  24.936  1.00  0.00     0.097 A 
ENDBRANCH  98  99
ENDBRANCH  27  98
ENDBRANCH  24  27
ENDBRANCH  22  23
BRANCH  22 109
ATOM    109  CB  ARG     2      26.763  32.677  30.968  1.00  0.00     0.034 C 
BRANCH 109 110
ATOM    110  CG  ARG     2      26.794  34.179  31.291  1.00  0.00     0.027 C 
BRANCH 110 111
ATOM    111  CD  ARG     2      28.095  34.899  30.905  1.00  0.00     0.116 C 
BRANCH 111 112
ATOM    112  NE  ARG     2      29.238  34.548  31.776  1.00  0.00    -0.212 N 
ATOM    113  HE  ARG     2      29.919  33.940  31.362  1.00 99.99     0.178 HD
ATOM    114  CZ  ARG     2      29.501  34.971  33.019  1.00  0.00     0.666 C 
ATOM    115  NH2 ARG     2      30.662  34.661  33.580  1.00  0.00    -0.235 N 
ATOM    116  NH1 ARG     2      28.694  35.785  33.683  1.00  0.00    -0.235 N 
ATOM    117 1HH2 ARG     2      30.878  34.971  34.505  1.00 99.99     0.174 HD
ATOM    118 2HH2 ARG     2      31.328  34.124  33.062  1.00 99.99     0.174 HD
ATOM    119 2HH1 ARG     2      27.851  36.088  33.246  1.00 99.99     0.174 HD
ATOM    120 1HH1 ARG     2      28.929  36.078  34.607  1.00 99.99     0.174 HD
ENDBRANCH 111 112
ENDBRANCH 110 111
ENDBRANCH 109 110
ENDBRANCH  22 109
ENDBRANCH  20  22
ENDBRANCH   5  18
ENDBRANCH   1   5
TORSDOF 39
