REMARK WARNING: 32 MAX_TORS EXCEEDED!!!
REMARK  37 active torsions:
REMARK  status: ('A' for Active; 'I' for Inactive)
REMARK    1  A    between atoms: N_1  and  CA_2 
REMARK    2  A    between atoms: CA_2  and  CB_5 
REMARK    3  A    between atoms: CA_2  and  C_3 
REMARK       I    between atoms: C_3  and  N_20 
REMARK    4  A    between atoms: CB_5  and  CG_6 
REMARK    5  A    between atoms: CG_6  and  CD_7 
REMARK    6  A    between atoms: CD_7  and  NE_8 
REMARK       I    between atoms: NE_8  and  CZ_9 
REMARK       I    between atoms: CZ_9  and  NH1_10 
REMARK       I    between atoms: CZ_9  and  NH2_11 
REMARK    7  A    between atoms: N_20  and  CA_21 
REMARK    8  A    between atoms: CA_21  and  C_22 
REMARK    9  A    between atoms: CA_21  and  CB_24 
REMARK       I    between atoms: C_22  and  N_29 
REMARK   10  A    between atoms: CB_24  and  CG1_25 
REMARK   11  A    between atoms: N_29  and  CA_30 
REMARK   12  A    between atoms: CA_30  and  CB_33 
REMARK   13  A    between atoms: CA_30  and  C_31 
REMARK       I    between atoms: C_31  and  N_45 
REMARK   14  A    between atoms: CB_33  and  CG_34 
REMARK   15  A    between atoms: N_45  and  CA_46 
REMARK   16  A    between atoms: CA_46  and  CB_49 
REMARK   17  A    between atoms: CA_46  and  C_47 
REMARK       I    between atoms: C_47  and  N_53 
REMARK   18  A    between atoms: N_53  and  CA_54 
REMARK   19  A    between atoms: CA_54  and  C_55 
REMARK   20  A    between atoms: CA_54  and  CB_57 
REMARK       I    between atoms: C_55  and  N_62 
REMARK   21  A    between atoms: CB_57  and  CG1_58 
REMARK   22  A    between atoms: N_62  and  CA_63 
REMARK   23  A    between atoms: CA_63  and  C_64 
REMARK   24  A    between atoms: CA_63  and  CB_66 
REMARK       I    between atoms: C_64  and  N_79 
REMARK   25  A    between atoms: CB_66  and  CG_67 
REMARK   26  A    between atoms: CG_67  and  CD_68 
REMARK   27  A    between atoms: CD_68  and  NE_69 
REMARK       I    between atoms: NE_69  and  CZ_70 
REMARK       I    between atoms: CZ_70  and  NH2_72 
REMARK       I    between atoms: CZ_70  and  NH1_71 
REMARK   28  A    between atoms: N_79  and  CA_80 
REMARK   29  A    between atoms: CA_80  and  CB_83 
REMARK   30  A    between atoms: CA_80  and  C_81 
REMARK       I    between atoms: C_81  and  N_95 
REMARK   31  A    between atoms: CB_83  and  CG_84 
REMARK   32  A    between atoms: N_95  and  CA_96 
REMARK   33  A    between atoms: CA_96  and  CB_99 
REMARK   34  A    between atoms: CA_96  and  C_97 
REMARK   35  A    between atoms: CB_99  and  CG_100 
REMARK   36  A    between atoms: CG_100  and  CD_101 
REMARK   37  A    between atoms: CD_101  and  NE_102 
REMARK       I    between atoms: NE_102  and  CZ_103 
REMARK       I    between atoms: CZ_103  and  NH1_104 
ROOT
ATOM      1  N   ARG     1      27.642  35.277  38.478  1.00  0.00    -0.058 N 
ATOM      2  H1  ARG     1      27.903  36.083  37.944  1.00 99.99     0.276 HD
ATOM      3  H2  ARG     1      26.779  35.467  38.914  1.00 99.99     0.276 HD
ATOM      4  H3  ARG     1      28.286  35.153  39.218  1.00 99.99     0.276 HD
ENDROOT
BRANCH   1   5
ATOM      5  CA  ARG     1      27.573  34.125  37.545  1.00  0.00     0.255 C 
BRANCH   5   6
ATOM      6  CB  ARG     1      26.147  33.536  37.510  1.00  0.00     0.042 C 
BRANCH   6   7
ATOM      7  CG  ARG     1      26.010  32.276  36.636  1.00  0.00     0.027 C 
BRANCH   7   8
ATOM      8  CD  ARG     1      24.583  31.710  36.583  1.00  0.00     0.116 C 
BRANCH   8   9
ATOM      9  NE  ARG     1      23.691  32.499  35.708  1.00  0.00    -0.212 N 
ATOM     10  CZ  ARG     1      22.367  32.343  35.575  1.00  0.00     0.666 C 
ATOM     11  NH1 ARG     1      21.690  31.421  36.248  1.00  0.00    -0.235 N 
ATOM     12  NH2 ARG     1      21.678  33.132  34.760  1.00  0.00    -0.235 N 
ATOM     13 2HH1 ARG     1      22.181  30.819  36.875  1.00 99.99     0.174 HD
ATOM     14 1HH1 ARG     1      20.702  31.335  36.136  1.00 99.99     0.174 HD
ATOM     15 1HH2 ARG     1      20.690  33.011  34.676  1.00 99.99     0.174 HD
ATOM     16 2HH2 ARG     1      22.136  33.843  34.230  1.00 99.99     0.174 HD
ATOM     17  HE  ARG     1      24.142  33.190  35.148  1.00 99.99     0.178 HD
ENDBRANCH   8   9
ENDBRANCH   7   8
ENDBRANCH   6   7
ENDBRANCH   5   6
BRANCH   5  18
ATOM     18  C   ARG     1      27.959  34.619  36.133  1.00  0.00     0.259 C 
ATOM     19  O   ARG     1      27.476  35.663  35.697  1.00  0.00    -0.271 OA
ATOM     20  N   ILE     2      28.923  33.950  35.504  1.00  0.00    -0.338 N 
ATOM     21  H   ILE     2      29.377  33.150  35.895  1.00 99.99     0.164 HD
BRANCH  20  22
ATOM     22  CA  ILE     2      29.366  34.284  34.132  1.00  0.00     0.159 C 
BRANCH  22  23
ATOM     23  C   ILE     2      29.132  33.039  33.252  1.00  0.00     0.251 C 
ATOM     24  O   ILE     2      29.246  31.910  33.727  1.00  0.00    -0.271 OA
ATOM     25  N   TRP     3      28.736  33.282  32.007  1.00  0.00    -0.337 N 
ATOM     26  H   TRP     3      28.503  34.201  31.692  1.00 99.99     0.164 HD
BRANCH  25  27
ATOM     27  CA  TRP     3      28.577  32.234  30.981  1.00  0.00     0.164 C 
BRANCH  27  28
ATOM     28  CB  TRP     3      27.175  32.302  30.368  1.00  0.00     0.059 C 
BRANCH  28  29
ATOM     29  CG  TRP     3      26.052  31.698  31.220  1.00  0.00    -0.016 A 
ATOM     30  CD2 TRP     3      24.762  31.509  30.754  1.00  0.00    -0.001 A 
ATOM     31  CE3 TRP     3      24.128  31.906  29.587  1.00  0.00     0.014 A 
ATOM     32  CE2 TRP     3      24.108  30.714  31.681  1.00  0.00     0.042 A 
ATOM     33  CZ3 TRP     3      22.829  31.492  29.333  1.00  0.00     0.001 A 
ATOM     34  CH2 TRP     3      22.161  30.702  30.264  1.00  0.00     0.002 A 
ATOM     35  CZ2 TRP     3      22.796  30.320  31.441  1.00  0.00     0.030 A 
ATOM     36  NE1 TRP     3      24.980  30.444  32.651  1.00  0.00    -0.365 N 
ATOM     37  CD1 TRP     3      26.140  31.044  32.379  1.00  0.00     0.097 A 
ATOM     38  HE1 TRP     3      24.816  29.834  33.427  1.00 99.99     0.165 HD
ENDBRANCH  28  29
ENDBRANCH  27  28
BRANCH  27  39
ATOM     39  C   TRP     3      29.634  32.408  29.884  1.00  0.00     0.251 C 
ATOM     40  O   TRP     3      29.689  33.436  29.209  1.00  0.00    -0.271 OA
ATOM     41  N   VAL     4      30.573  31.470  29.867  1.00  0.00    -0.338 N 
ATOM     42  H   VAL     4      30.551  30.686  30.486  1.00 99.99     0.164 HD
BRANCH  41  43
ATOM     43  CA  VAL     4      31.699  31.476  28.910  1.00  0.00     0.159 C 
BRANCH  43  44
ATOM     44  CB  VAL     4      32.947  30.810  29.530  1.00  0.00     0.029 C 
ATOM     45  CG1 VAL     4      34.151  30.850  28.579  1.00  0.00     0.002 C 
ATOM     46  CG2 VAL     4      33.349  31.469  30.855  1.00  0.00     0.002 C 
ENDBRANCH  43  44
BRANCH  43  47
ATOM     47  C   VAL     4      31.249  30.763  27.624  1.00  0.00     0.251 C 
ATOM     48  N   ILE     5      31.189  31.535  26.540  1.00  0.00    -0.338 N 
ATOM     49  H   ILE     5      31.319  32.524  26.609  1.00 99.99     0.164 HD
ATOM     50  O   VAL     4      31.042  29.552  27.624  1.00  0.00    -0.271 OA
BRANCH  48  51
ATOM     51  CA  ILE     5      30.780  31.078  25.187  1.00  0.00     0.159 C 
BRANCH  51  52
ATOM     52  C   ILE     5      31.598  29.930  24.547  1.00  0.00     0.251 C 
ATOM     53  N   ARG     6      32.615  29.455  25.262  1.00  0.00    -0.338 N 
ATOM     54  H   ARG     6      32.802  29.797  26.180  1.00 99.99     0.164 HD
ATOM     55  O   ILE     5      31.323  29.522  23.421  1.00  0.00    -0.271 OA
BRANCH  53  56
ATOM     56  CA  ARG     6      33.397  28.254  24.916  1.00  0.00     0.159 C 
BRANCH  56  57
ATOM     57  C   ARG     6      33.249  27.307  26.116  1.00  0.00     0.251 C 
ATOM     58  N   TRP     7      32.159  26.554  26.050  1.00  0.00    -0.337 N 
ATOM     59  H   TRP     7      31.529  26.613  25.280  1.00 99.99     0.164 HD
ATOM     60  O   ARG     6      33.893  27.481  27.152  1.00  0.00    -0.271 OA
BRANCH  58  61
ATOM     61  CA  TRP     7      31.733  25.632  27.117  1.00  0.00     0.164 C 
BRANCH  61  62
ATOM     62  CB  TRP     7      30.308  25.141  26.833  1.00  0.00     0.059 C 
BRANCH  62  63
ATOM     63  CG  TRP     7      29.309  26.303  26.800  1.00  0.00    -0.016 A 
ATOM     64  CD2 TRP     7      28.720  26.916  27.894  1.00  0.00    -0.001 A 
ATOM     65  CE2 TRP     7      27.858  27.878  27.392  1.00  0.00     0.042 A 
ATOM     66  CE3 TRP     7      28.838  26.718  29.263  1.00  0.00     0.014 A 
ATOM     67  NE1 TRP     7      27.940  27.827  26.063  1.00  0.00    -0.365 N 
ATOM     68  CZ2 TRP     7      27.104  28.651  28.268  1.00  0.00     0.030 A 
ATOM     69  HE1 TRP     7      27.416  28.392  25.425  1.00 99.99     0.165 HD
ATOM     70  CD1 TRP     7      28.812  26.881  25.710  1.00  0.00     0.097 A 
ATOM     71  CH2 TRP     7      27.215  28.454  29.641  1.00  0.00     0.002 A 
ATOM     72  CZ3 TRP     7      28.079  27.484  30.138  1.00  0.00     0.001 A 
ENDBRANCH  62  63
ENDBRANCH  61  62
BRANCH  61  73
ATOM     73  C   TRP     7      32.691  24.451  27.336  1.00  0.00     0.251 C 
ATOM     74  O   TRP     7      33.605  24.198  26.553  1.00  0.00    -0.271 OA
ATOM     75  N   ARG     8      32.587  23.923  28.549  1.00  0.00    -0.336 N 
ATOM     76  H   ARG     8      31.946  24.306  29.212  1.00 99.99     0.164 HD
BRANCH  75  77
ATOM     77  CA  ARG     8      33.307  22.720  29.022  1.00  0.00     0.168 C 
BRANCH  77  78
ATOM     78  CB  ARG     8      34.366  23.101  30.062  1.00  0.00     0.035 C 
BRANCH  78  79
ATOM     79  CG  ARG     8      35.380  24.159  29.628  1.00  0.00     0.027 C 
BRANCH  79  80
ATOM     80  CD  ARG     8      36.148  24.585  30.876  1.00  0.00     0.116 C 
BRANCH  80  81
ATOM     81  NE  ARG     8      37.093  25.669  30.567  1.00  0.00    -0.212 N 
ATOM     82  HE  ARG     8      37.150  25.921  29.603  1.00 99.99     0.178 HD
ATOM     83  CZ  ARG     8      37.830  26.330  31.463  1.00  0.00     0.666 C 
ATOM     84  NH1 ARG     8      37.736  26.082  32.764  1.00  0.00    -0.235 N 
ATOM     85  NH2 ARG     8      38.725  27.222  31.066  1.00  0.00    -0.235 N 
ATOM     86 2HH1 ARG     8      37.089  25.387  33.073  1.00 99.99     0.174 HD
ATOM     87 1HH1 ARG     8      38.296  26.581  33.421  1.00 99.99     0.174 HD
ATOM     88 2HH2 ARG     8      38.858  27.405  30.094  1.00 99.99     0.174 HD
ATOM     89 1HH2 ARG     8      39.273  27.702  31.747  1.00 99.99     0.174 HD
ENDBRANCH  80  81
ENDBRANCH  79  80
ENDBRANCH  78  79
ENDBRANCH  77  78
BRANCH  77  90
ATOM     90  C   ARG     8      32.292  21.823  29.748  1.00  0.00     0.206 C 
ATOM     91  O   ARG     8      32.211  20.622  29.413  1.00 99.99    -0.646 OA
ATOM     92  OXT ARG     8      31.534  22.426  30.545  1.00 99.99    -0.646 OA
ENDBRANCH  77  90
ENDBRANCH  75  77
ENDBRANCH  61  73
ENDBRANCH  58  61
ENDBRANCH  56  57
BRANCH  56  93
ATOM     93  CB  ARG     6      34.879  28.593  24.722  1.00  0.00     0.034 C 
BRANCH  93  94
ATOM     94  CG  ARG     6      35.149  29.685  23.681  1.00  0.00     0.027 C 
BRANCH  94  95
ATOM     95  CD  ARG     6      36.641  30.031  23.619  1.00  0.00     0.116 C 
BRANCH  95  96
ATOM     96  NE  ARG     6      37.131  30.495  24.933  1.00  0.00    -0.212 N 
ATOM     97  HE  ARG     6      37.429  29.768  25.548  1.00 99.99     0.178 HD
ATOM     98  CZ  ARG     6      37.193  31.759  25.363  1.00  0.00     0.666 C 
ATOM     99  NH2 ARG     6      37.641  32.028  26.582  1.00  0.00    -0.235 N 
ATOM    100  NH1 ARG     6      36.794  32.773  24.606  1.00  0.00    -0.235 N 
ATOM    101 2HH2 ARG     6      37.940  31.291  27.185  1.00 99.99     0.174 HD
ATOM    102 1HH2 ARG     6      37.687  32.975  26.891  1.00 99.99     0.174 HD
ATOM    103 2HH1 ARG     6      36.446  32.576  23.690  1.00 99.99     0.174 HD
ATOM    104 1HH1 ARG     6      36.850  33.711  24.938  1.00 99.99     0.174 HD
ENDBRANCH  95  96
ENDBRANCH  94  95
ENDBRANCH  93  94
ENDBRANCH  56  93
ENDBRANCH  53  56
ENDBRANCH  51  52
BRANCH  51 105
ATOM    105  CB  ILE     5      30.674  32.269  24.214  1.00  0.00     0.029 C 
ATOM    106  CG2 ILE     5      29.474  33.148  24.604  1.00  0.00     0.002 C 
BRANCH 105 107
ATOM    107  CG1 ILE     5      31.996  33.052  24.112  1.00  0.00     0.002 C 
ATOM    108  CD  ILE     5      32.058  34.032  22.933  1.00  0.00     0.000 C 
ENDBRANCH 105 107
ENDBRANCH  51 105
ENDBRANCH  48  51
ENDBRANCH  43  47
ENDBRANCH  41  43
ENDBRANCH  27  39
ENDBRANCH  25  27
ENDBRANCH  22  23
BRANCH  22 109
ATOM    109  CB  ILE     2      30.849  34.729  34.149  1.00  0.00     0.029 C 
ATOM    110  CG2 ILE     2      31.363  35.042  32.731  1.00  0.00     0.002 C 
BRANCH 109 111
ATOM    111  CG1 ILE     2      31.045  35.952  35.066  1.00  0.00     0.002 C 
ATOM    112  CD  ILE     2      32.507  36.275  35.409  1.00  0.00     0.000 C 
ENDBRANCH 109 111
ENDBRANCH  22 109
ENDBRANCH  20  22
ENDBRANCH   5  18
ENDBRANCH   1   5
TORSDOF 37
