REMARK  32 active torsions:
REMARK  status: ('A' for Active; 'I' for Inactive)
REMARK    1  A    between atoms: CA_2  and  CB_3 
REMARK    2  A    between atoms: CA_2  and  C_10 
REMARK    3  A    between atoms: CB_3  and  CG_4 
REMARK    4  A    between atoms: CG_4  and  CD_5 
REMARK    5  A    between atoms: CD_5  and  NE_6 
REMARK       I    between atoms: C_10  and  N_12 
REMARK    6  A    between atoms: N_12  and  CA_13 
REMARK    7  A    between atoms: CA_13  and  CB_14 
REMARK    8  A    between atoms: CA_13  and  C_18 
REMARK    9  A    between atoms: CB_14  and  CG1_15 
REMARK       I    between atoms: C_18  and  N_20 
REMARK       I    between atoms: N_20  and  CA_21 
REMARK   10  A    between atoms: CA_21  and  CB_22 
REMARK       I    between atoms: CA_21  and  C_27 
REMARK   11  A    between atoms: CB_22  and  CG_23 
REMARK   12  A    between atoms: CG_23  and  CD_24 
REMARK   13  A    between atoms: CD_24  and  CE_25 
REMARK       I    between atoms: C_27  and  N_29 
REMARK       I    between atoms: N_29  and  CA_30 
REMARK       I    between atoms: CA_30  and  C_38 
REMARK   14  A    between atoms: CA_30  and  CB_31 
REMARK   15  A    between atoms: CB_31  and  CG_32 
REMARK   16  A    between atoms: CG_32  and  CD_33 
REMARK   17  A    between atoms: CD_33  and  NE_34 
REMARK       I    between atoms: C_38  and  N_40 
REMARK       I    between atoms: N_40  and  CA_41 
REMARK       I    between atoms: CA_41  and  C_49 
REMARK   18  A    between atoms: CA_41  and  CB_42 
REMARK   19  A    between atoms: CB_42  and  CG_43 
REMARK       I    between atoms: C_49  and  N_51 
REMARK       I    between atoms: N_51  and  CA_52 
REMARK       I    between atoms: CA_52  and  C_63 
REMARK   20  A    between atoms: CA_52  and  CB_53 
REMARK   21  A    between atoms: CB_53  and  CG_54 
REMARK       I    between atoms: C_63  and  N_65 
REMARK       I    between atoms: CA_66  and  C_70 
REMARK       I    between atoms: C_70  and  N_72 
REMARK       I    between atoms: N_72  and  CA_73 
REMARK   22  A    between atoms: CA_73  and  CB_74 
REMARK       I    between atoms: CA_73  and  C_77 
REMARK       I    between atoms: C_77  and  N_79 
REMARK       I    between atoms: N_79  and  CA_80 
REMARK   23  A    between atoms: CA_80  and  CB_81 
REMARK       I    between atoms: CA_80  and  C_84 
REMARK       I    between atoms: C_84  and  N_86 
REMARK       I    between atoms: N_86  and  CA_87 
REMARK   24  A    between atoms: CA_87  and  C_92 
REMARK   25  A    between atoms: CA_87  and  CB_88 
REMARK   26  A    between atoms: CB_88  and  CG1_89 
REMARK       I    between atoms: C_92  and  N_94 
REMARK   27  A    between atoms: N_94  and  CA_95 
REMARK   28  A    between atoms: CA_95  and  C_103 
REMARK   29  A    between atoms: CA_95  and  CB_96 
REMARK   30  A    between atoms: CB_96  and  CG_97 
REMARK   31  A    between atoms: CG_97  and  CD_98 
REMARK   32  A    between atoms: CD_98  and  NE_99 
ROOT
ATOM      1  C   ILE     2      32.010  34.640  33.070  1.00  0.00     0.274 C 
ATOM      2  O   ILE     2      31.780  33.670  32.350  1.00  0.00    -0.268 OA
ATOM      3  N   LYS     3      32.380  34.540  34.350  1.00  0.00    -0.229 NA
ATOM      4  CA  LYS     3      32.710  33.280  35.060  1.00  0.00     0.186 C 
ATOM      5  C   LYS     3      31.720  32.090  35.000  1.00  0.00     0.274 C 
ATOM      6  O   LYS     3      32.040  31.010  35.460  1.00  0.00    -0.268 OA
ATOM      7  N   ARG     4      30.480  32.340  34.580  1.00  0.00    -0.229 NA
ATOM      8  CA  ARG     4      29.460  31.290  34.360  1.00  0.00     0.186 C 
ATOM      9  C   ARG     4      29.330  30.810  32.890  1.00  0.00     0.274 C 
ATOM     10  O   ARG     4      28.790  29.740  32.640  1.00  0.00    -0.268 OA
ATOM     11  N   PHE     5      29.810  31.630  31.950  1.00  0.00    -0.228 NA
ATOM     12  CA  PHE     5      29.670  31.380  30.500  1.00  0.00     0.191 C 
ATOM     13  C   PHE     5      30.980  30.870  29.860  1.00  0.00     0.275 C 
ATOM     14  O   PHE     5      31.020  29.780  29.300  1.00  0.00    -0.268 OA
ATOM     15  N   TRP     6      32.090  31.550  30.170  1.00  0.00    -0.228 NA
ATOM     16  CA  TRP     6      33.430  31.190  29.670  1.00  0.00     0.189 C 
ATOM     17  C   TRP     6      34.150  29.930  30.230  1.00  0.00     0.257 C 
ATOM     18  O   TRP     6      35.340  29.780  29.960  1.00  0.00    -0.270 OA
ATOM     19  N   PRO     7      33.540  29.120  31.100  1.00  0.00    -0.312 N 
ATOM     20  CA  PRO     7      33.890  27.690  31.160  1.00  0.00     0.165 C 
ATOM     21  CB  PRO     7      33.590  27.240  32.600  1.00  0.00     0.034 C 
ATOM     22  CG  PRO     7      32.540  28.240  33.070  1.00  0.00     0.027 C 
ATOM     23  CD  PRO     7      32.960  29.540  32.390  1.00  0.00     0.105 C 
ATOM     24  C   PRO     7      33.160  26.840  30.110  1.00  0.00     0.272 C 
ATOM     25  O   PRO     7      33.830  26.250  29.270  1.00  0.00    -0.269 OA
ATOM     26  N   VAL     8      31.860  27.060  29.940  1.00  0.00    -0.229 NA
ATOM     27  CA  VAL     8      30.970  26.290  29.020  1.00  0.00     0.186 C 
ATOM     28  C   VAL     8      31.380  26.430  27.530  1.00  0.00     0.274 C 
ATOM     29  O   VAL     8      31.160  25.520  26.750  1.00  0.00    -0.268 OA
ATOM     30  N   VAL     9      31.880  27.610  27.150  1.00  0.00    -0.229 NA
ATOM     31  CA  VAL     9      32.430  27.890  25.800  1.00  0.00     0.186 C 
ATOM     32  C   VAL     9      33.800  27.240  25.480  1.00  0.00     0.274 C 
ATOM     33  O   VAL     9      34.100  26.970  24.320  1.00  0.00    -0.268 OA
ATOM     34  N   ILE    10      34.620  27.010  26.510  1.00  0.00    -0.229 NA
ATOM     35  CA  ILE    10      35.970  26.410  26.380  1.00  0.00     0.186 C 
ENDROOT
BRANCH  16  36
ATOM     36  CB  TRP     6      34.320  32.430  29.690  1.00  0.00     0.062 C 
BRANCH  36  37
ATOM     37  CG  TRP     6      33.800  33.510  28.730  1.00  0.00     0.001 A 
ATOM     38  CD2 TRP     6      34.040  33.590  27.360  1.00  0.00     0.015 A 
ATOM     39  CE3 TRP     6      34.650  32.750  26.440  1.00  0.00     0.001 A 
ATOM     40  CE2 TRP     6      33.500  34.800  26.940  1.00  0.00     0.081 A 
ATOM     41  CZ3 TRP     6      34.710  33.110  25.100  1.00  0.00     0.000 A 
ATOM     42  CH2 TRP     6      34.160  34.320  24.680  1.00  0.00     0.002 A 
ATOM     43  CZ2 TRP     6      33.560  35.160  25.600  1.00  0.00     0.019 A 
ATOM     44  NE1 TRP     6      32.980  35.400  28.000  1.00  0.00    -0.244 NA
ATOM     45  CD1 TRP     6      33.140  34.620  29.070  1.00  0.00     0.095 A 
ENDBRANCH  36  37
ENDBRANCH  16  36
BRANCH  12  46
ATOM     46  CB  PHE     5      29.200  32.680  29.830  1.00  0.00     0.060 C 
BRANCH  46  47
ATOM     47  CG  PHE     5      28.990  32.560  28.320  1.00  0.00    -0.020 A 
ATOM     48  CD1 PHE     5      27.820  32.000  27.820  1.00  0.00    -0.004 A 
ATOM     49  CE1 PHE     5      27.570  32.000  26.450  1.00  0.00    -0.000 A 
ATOM     50  CZ  PHE     5      28.500  32.560  25.580  1.00  0.00    -0.000 A 
ATOM     51  CE2 PHE     5      29.670  33.120  26.070  1.00  0.00    -0.000 A 
ATOM     52  CD2 PHE     5      29.920  33.110  27.440  1.00  0.00    -0.004 A 
ENDBRANCH  46  47
ENDBRANCH  12  46
BRANCH  27  53
ATOM     53  CB  VAL     8      29.510  26.710  29.260  1.00  0.00     0.032 C 
ATOM     54  CG1 VAL     8      28.510  25.900  28.420  1.00  0.00     0.003 C 
ATOM     55  CG2 VAL     8      29.120  26.600  30.740  1.00  0.00     0.003 C 
ENDBRANCH  27  53
BRANCH   8  56
ATOM     56  CB  ARG     4      28.080  31.740  34.850  1.00  0.00     0.036 C 
BRANCH  56  57
ATOM     57  CG  ARG     4      27.970  31.790  36.370  1.00  0.00     0.029 C 
BRANCH  57  58
ATOM     58  CD  ARG     4      26.540  32.170  36.790  1.00  0.00     0.145 C 
BRANCH  58  59
ATOM     59  NE  ARG     4      26.390  32.190  38.250  1.00  0.00    -0.083 NA
ATOM     60  CZ  ARG     4      25.300  32.600  38.930  1.00  0.00     0.782 C 
ATOM     61  NH1 ARG     4      24.180  32.970  38.290  1.00  0.00     0.063 N 
ATOM     62  NH2 ARG     4      25.330  32.690  40.260  1.00  0.00     0.063 N 
ENDBRANCH  58  59
ENDBRANCH  57  58
ENDBRANCH  56  57
ENDBRANCH   8  56
BRANCH  31  63
ATOM     63  CB  VAL     9      32.420  29.420  25.590  1.00  0.00     0.032 C 
ATOM     64  CG2 VAL     9      30.990  29.950  25.710  1.00  0.00     0.003 C 
ATOM     65  CG1 VAL     9      32.970  29.860  24.230  1.00  0.00     0.003 C 
ENDBRANCH  31  63
BRANCH   4  66
ATOM     66  CB  LYS     3      33.040  33.570  36.530  1.00  0.00     0.034 C 
BRANCH  66  67
ATOM     67  CG  LYS     3      34.360  34.340  36.730  1.00  0.00     0.005 C 
BRANCH  67  68
ATOM     68  CD  LYS     3      34.690  34.480  38.220  1.00  0.00     0.041 C 
BRANCH  68  69
ATOM     69  CE  LYS     3      36.020  35.220  38.440  1.00  0.00     0.338 C 
ATOM     70  NZ  LYS     3      36.380  35.310  39.870  1.00  0.00     0.618 N 
ENDBRANCH  68  69
ENDBRANCH  67  68
ENDBRANCH  66  67
ENDBRANCH   4  66
BRANCH   1  71
ATOM     71  CA  ILE     2      31.590  36.050  32.580  1.00  0.00     0.186 C 
BRANCH  71  72
ATOM     72  N   ILE     2      30.400  36.650  33.250  1.00  0.00    -0.229 NA
ATOM     73  C   ARG     1      29.220  36.020  33.380  1.00  0.00     0.289 C 
ATOM     74  O   ARG     1      29.180  34.810  33.580  1.00  0.00    -0.268 OA
BRANCH  73  75
ATOM     75  CA  ARG     1      27.960  36.840  33.750  1.00  0.00     0.381 C 
ATOM     76  N   ARG     1      27.940  38.260  33.320  1.00  0.00     0.626 N 
BRANCH  75  77
ATOM     77  CB  ARG     1      26.710  36.120  33.210  1.00  0.00     0.051 C 
BRANCH  77  78
ATOM     78  CG  ARG     1      25.380  36.450  33.890  1.00  0.00     0.030 C 
BRANCH  78  79
ATOM     79  CD  ARG     1      24.210  35.670  33.260  1.00  0.00     0.145 C 
BRANCH  79  80
ATOM     80  NE  ARG     1      22.920  35.960  33.900  1.00  0.00    -0.083 NA
ATOM     81  CZ  ARG     1      21.700  35.510  33.510  1.00  0.00     0.782 C 
ATOM     82  NH1 ARG     1      21.550  34.730  32.430  1.00  0.00     0.063 N 
ATOM     83  NH2 ARG     1      20.620  35.830  34.220  1.00  0.00     0.063 N 
ENDBRANCH  79  80
ENDBRANCH  78  79
ENDBRANCH  77  78
ENDBRANCH  75  77
ENDBRANCH  73  75
ENDBRANCH  71  72
BRANCH  71  84
ATOM     84  CB  ILE     2      32.740  37.080  32.590  1.00  0.00     0.032 C 
ATOM     85  CG2 ILE     2      34.070  36.500  32.080  1.00  0.00     0.003 C 
BRANCH  84  86
ATOM     86  CG1 ILE     2      32.340  38.290  31.740  1.00  0.00     0.002 C 
ATOM     87  CD  ILE     2      33.300  39.470  31.870  1.00  0.00     0.000 C 
ENDBRANCH  84  86
ENDBRANCH  71  84
ENDBRANCH   1  71
BRANCH  35  88
ATOM     88  C   ILE    10      35.980  24.860  26.500  1.00  0.00     0.274 C 
ATOM     89  N   ARG    11      34.840  24.310  26.920  1.00  0.00    -0.227 NA
ATOM     90  O   ILE    10      36.910  24.210  26.040  1.00  0.00    -0.268 OA
BRANCH  89  91
ATOM     91  CA  ARG    11      34.700  22.930  27.420  1.00  0.00     0.193 C 
BRANCH  91  92
ATOM     92  C   ARG    11      33.770  22.080  26.540  1.00  0.00     0.209 C 
ATOM     93  O1  ARG    11      32.760  22.670  26.090  1.00  0.00    -0.646 OA
ATOM     94  O2  ARG    11      33.840  20.840  26.730  1.00  0.00    -0.646 OA
ENDBRANCH  91  92
BRANCH  91  95
ATOM     95  CB  ARG    11      33.960  23.000  28.740  1.00  0.00     0.038 C 
BRANCH  95  96
ATOM     96  CG  ARG    11      34.770  22.960  30.030  1.00  0.00     0.030 C 
BRANCH  96  97
ATOM     97  CD  ARG    11      33.770  22.590  31.140  1.00  0.00     0.145 C 
BRANCH  97  98
ATOM     98  NE  ARG    11      33.320  21.190  30.960  1.00  0.00    -0.083 NA
ATOM     99  CZ  ARG    11      32.160  20.760  30.440  1.00  0.00     0.782 C 
ATOM    100  NH1 ARG    11      31.260  21.600  29.900  1.00  0.00     0.063 N 
ATOM    101  NH2 ARG    11      31.900  19.450  30.410  1.00  0.00     0.063 N 
ENDBRANCH  97  98
ENDBRANCH  96  97
ENDBRANCH  95  96
ENDBRANCH  91  95
ENDBRANCH  89  91
ENDBRANCH  35  88
BRANCH  35 102
ATOM    102  CB  ILE    10      36.910  27.100  27.400  1.00  0.00     0.032 C 
ATOM    103  CG2 ILE    10      38.300  26.460  27.490  1.00  0.00     0.003 C 
BRANCH 102 104
ATOM    104  CG1 ILE    10      37.040  28.600  27.060  1.00  0.00     0.002 C 
ATOM    105  CD  ILE    10      37.870  29.390  28.070  1.00  0.00     0.000 C 
ENDBRANCH 102 104
ENDBRANCH  35 102
TORSDOF 46
