REMARK  32 active torsions:
REMARK  status: ('A' for Active; 'I' for Inactive)
REMARK    1  A    between atoms: CA_2  and  CB_3 
REMARK    2  A    between atoms: CA_2  and  C_10 
REMARK    3  A    between atoms: CB_3  and  CG_4 
REMARK       I    between atoms: C_10  and  N_12 
REMARK    4  A    between atoms: N_12  and  CA_13 
REMARK    5  A    between atoms: CA_13  and  C_16 
REMARK    6  A    between atoms: CA_13  and  CB_14 
REMARK       I    between atoms: C_16  and  N_18 
REMARK    7  A    between atoms: N_18  and  CA_19 
REMARK    8  A    between atoms: CA_19  and  C_23 
REMARK    9  A    between atoms: CA_19  and  CB_20 
REMARK       I    between atoms: C_23  and  N_25 
REMARK   10  A    between atoms: N_25  and  CA_26 
REMARK   11  A    between atoms: CA_26  and  CB_27 
REMARK   12  A    between atoms: CA_26  and  C_31 
REMARK   13  A    between atoms: CB_27  and  CG_28 
REMARK   14  A    between atoms: CG_28  and  SD_29 
REMARK       I    between atoms: C_31  and  N_33 
REMARK       I    between atoms: N_33  and  CA_34 
REMARK       I    between atoms: CA_34  and  C_39 
REMARK   15  A    between atoms: CA_34  and  CB_35 
REMARK   16  A    between atoms: CB_35  and  CG1_36 
REMARK       I    between atoms: C_39  and  N_41 
REMARK       I    between atoms: CA_42  and  C_46 
REMARK       I    between atoms: C_46  and  N_48 
REMARK       I    between atoms: N_48  and  CA_49 
REMARK       I    between atoms: CA_49  and  C_54 
REMARK   17  A    between atoms: CA_49  and  CB_50 
REMARK   18  A    between atoms: CB_50  and  CG1_51 
REMARK       I    between atoms: C_54  and  N_56 
REMARK   19  A    between atoms: CA_57  and  C_61 
REMARK       I    between atoms: C_61  and  N_63 
REMARK   20  A    between atoms: N_63  and  CA_64 
REMARK   21  A    between atoms: CA_64  and  C_72 
REMARK   22  A    between atoms: CA_64  and  CB_65 
REMARK   23  A    between atoms: CB_65  and  CG_66 
REMARK   24  A    between atoms: CG_66  and  CD_67 
REMARK   25  A    between atoms: CD_67  and  NE_68 
REMARK       I    between atoms: C_72  and  N_74 
REMARK   26  A    between atoms: N_74  and  CA_75 
REMARK   27  A    between atoms: CA_75  and  CB_76 
REMARK   28  A    between atoms: CA_75  and  C_78 
REMARK       I    between atoms: C_78  and  N_80 
REMARK   29  A    between atoms: N_80  and  CA_81 
REMARK   30  A    between atoms: CA_81  and  CB_82 
REMARK   31  A    between atoms: CA_81  and  C_90 
REMARK   32  A    between atoms: CB_82  and  CG_83 
ROOT
ATOM      1  C   MET     4      32.520  26.480  31.320  1.00  0.00     0.274 C 
ATOM      2  O   MET     4      32.010  25.500  30.780  1.00  0.00    -0.268 OA
ATOM      3  N   ILE     5      31.790  27.380  31.990  1.00  0.00    -0.229 NA
ATOM      4  CA  ILE     5      30.350  27.150  32.250  1.00  0.00     0.184 C 
ATOM      5  C   ILE     5      29.440  27.800  31.180  1.00  0.00     0.256 C 
ATOM      6  O   ILE     5      29.710  28.940  30.790  1.00  0.00    -0.270 OA
ATOM      7  N   PRO     6      28.390  27.100  30.720  1.00  0.00    -0.312 N 
ATOM      8  CA  PRO     6      27.450  27.610  29.710  1.00  0.00     0.165 C 
ATOM      9  CB  PRO     6      26.630  26.390  29.270  1.00  0.00     0.034 C 
ATOM     10  CG  PRO     6      26.670  25.480  30.490  1.00  0.00     0.027 C 
ATOM     11  CD  PRO     6      28.080  25.690  31.040  1.00  0.00     0.105 C 
ATOM     12  C   PRO     6      26.580  28.790  30.180  1.00  0.00     0.272 C 
ATOM     13  O   PRO     6      25.590  28.620  30.880  1.00  0.00    -0.269 OA
ATOM     14  N   ILE     7      27.170  29.960  30.030  1.00  0.00    -0.229 NA
ATOM     15  CA  ILE     7      26.530  31.300  30.140  1.00  0.00     0.184 C 
ATOM     16  C   ILE     7      26.900  32.060  28.840  1.00  0.00     0.256 C 
ATOM     17  O   ILE     7      28.080  32.070  28.510  1.00  0.00    -0.270 OA
ATOM     18  N   PRO     8      25.950  32.760  28.190  1.00  0.00    -0.312 N 
ATOM     19  CA  PRO     8      26.190  33.550  26.950  1.00  0.00     0.165 C 
ATOM     20  CB  PRO     8      24.780  33.820  26.400  1.00  0.00     0.034 C 
ATOM     21  CG  PRO     8      23.920  33.890  27.660  1.00  0.00     0.027 C 
ATOM     22  CD  PRO     8      24.510  32.790  28.540  1.00  0.00     0.105 C 
ENDROOT
BRANCH  15  23
ATOM     23  CB  ILE     7      27.060  32.010  31.410  1.00  0.00     0.032 C 
ATOM     24  CG2 ILE     7      26.770  33.520  31.420  1.00  0.00     0.003 C 
BRANCH  23  25
ATOM     25  CG1 ILE     7      26.500  31.340  32.660  1.00  0.00     0.002 C 
ATOM     26  CD  ILE     7      27.060  31.900  33.970  1.00  0.00     0.000 C 
ENDBRANCH  23  25
ENDBRANCH  15  23
BRANCH   4  27
ATOM     27  CB  ILE     5      29.940  27.540  33.690  1.00  0.00     0.032 C 
ATOM     28  CG2 ILE     5      30.740  26.690  34.680  1.00  0.00     0.003 C 
BRANCH  27  29
ATOM     29  CG1 ILE     5      30.070  29.040  33.980  1.00  0.00     0.002 C 
ATOM     30  CD  ILE     5      29.520  29.430  35.350  1.00  0.00     0.000 C 
ENDBRANCH  27  29
ENDBRANCH   4  27
BRANCH  19  31
ATOM     31  C   PRO     8      27.020  34.840  27.140  1.00  0.00     0.272 C 
ATOM     32  O   PRO     8      26.570  35.950  26.870  1.00  0.00    -0.269 OA
ATOM     33  N   ARG     9      28.190  34.640  27.740  1.00  0.00    -0.229 NA
BRANCH  33  34
ATOM     34  CA  ARG     9      29.270  35.600  28.080  1.00  0.00     0.186 C 
BRANCH  34  35
ATOM     35  C   ARG     9      30.640  34.900  28.240  1.00  0.00     0.274 C 
ATOM     36  O   ARG     9      31.660  35.570  28.200  1.00  0.00    -0.268 OA
ATOM     37  N   CYS    10      30.590  33.700  28.820  1.00  0.00    -0.228 NA
BRANCH  37  38
ATOM     38  CA  CYS    10      31.690  32.710  28.810  1.00  0.00     0.198 C 
BRANCH  38  39
ATOM     39  CB  CYS    10      31.500  31.670  29.930  1.00  0.00     0.103 C 
ATOM     40  SG  CYS    10      31.220  32.380  31.590  1.00  0.00    -0.080 SA
ENDBRANCH  38  39
BRANCH  38  41
ATOM     41  C   CYS    10      31.840  31.920  27.490  1.00  0.00     0.275 C 
ATOM     42  O   CYS    10      32.780  31.160  27.340  1.00  0.00    -0.268 OA
ATOM     43  N   TYR    11      30.740  31.930  26.730  1.00  0.00    -0.227 NA
BRANCH  43  44
ATOM     44  CA  TYR    11      30.590  31.440  25.360  1.00  0.00     0.197 C 
BRANCH  44  45
ATOM     45  CB  TYR    11      29.430  30.430  25.330  1.00  0.00     0.062 C 
BRANCH  45  46
ATOM     46  CG  TYR    11      29.240  29.670  24.020  1.00  0.00    -0.019 A 
ATOM     47  CD2 TYR    11      28.840  30.310  22.850  1.00  0.00    -0.002 A 
ATOM     48  CE2 TYR    11      28.660  29.590  21.670  1.00  0.00     0.027 A 
ATOM     49  CZ  TYR    11      28.870  28.220  21.660  1.00  0.00     0.131 A 
ATOM     50  OH  TYR    11      28.700  27.510  20.520  1.00  0.00    -0.190 OA
ATOM     51  CE1 TYR    11      29.260  27.570  22.830  1.00  0.00     0.027 A 
ATOM     52  CD1 TYR    11      29.440  28.300  24.000  1.00  0.00    -0.002 A 
ENDBRANCH  45  46
ENDBRANCH  44  45
BRANCH  44  53
ATOM     53  C   TYR    11      30.150  32.710  24.610  1.00  0.00     0.209 C 
ATOM     54  O2  TYR    11      30.550  32.880  23.440  1.00  0.00    -0.646 OA
ATOM     55  O1  TYR    11      29.350  33.470  25.220  1.00  0.00    -0.646 OA
ENDBRANCH  44  53
ENDBRANCH  43  44
ENDBRANCH  38  41
ENDBRANCH  37  38
ENDBRANCH  34  35
BRANCH  34  56
ATOM     56  CB  ARG     9      28.990  36.390  29.370  1.00  0.00     0.036 C 
BRANCH  56  57
ATOM     57  CG  ARG     9      27.950  37.520  29.230  1.00  0.00     0.029 C 
BRANCH  57  58
ATOM     58  CD  ARG     9      28.330  38.520  28.130  1.00  0.00     0.145 C 
BRANCH  58  59
ATOM     59  NE  ARG     9      27.330  39.590  28.030  1.00  0.00    -0.083 NA
ATOM     60  CZ  ARG     9      26.230  39.600  27.250  1.00  0.00     0.782 C 
ATOM     61  NH1 ARG     9      25.920  38.580  26.450  1.00  0.00     0.063 N 
ATOM     62  NH2 ARG     9      25.360  40.610  27.350  1.00  0.00     0.063 N 
ENDBRANCH  58  59
ENDBRANCH  57  58
ENDBRANCH  56  57
ENDBRANCH  34  56
ENDBRANCH  33  34
ENDBRANCH  19  31
BRANCH   1  63
ATOM     63  CA  MET     4      34.050  26.630  31.340  1.00  0.00     0.187 C 
BRANCH  63  64
ATOM     64  CB  MET     4      34.590  25.440  32.160  1.00  0.00     0.046 C 
BRANCH  64  65
ATOM     65  CG  MET     4      36.110  25.320  32.250  1.00  0.00     0.060 C 
BRANCH  65  66
ATOM     66  SD  MET     4      37.010  25.040  30.670  1.00  0.00    -0.139 SA
ATOM     67  CE  MET     4      36.240  23.550  30.080  1.00  0.00     0.069 C 
ENDBRANCH  65  66
ENDBRANCH  64  65
ENDBRANCH  63  64
BRANCH  63  68
ATOM     68  N   MET     4      34.550  27.910  31.890  1.00  0.00    -0.229 NA
ATOM     69  C   THR     3      34.920  28.950  31.140  1.00  0.00     0.277 C 
ATOM     70  O   THR     3      34.800  28.980  29.930  1.00  0.00    -0.268 OA
BRANCH  69  71
ATOM     71  CA  THR     3      35.510  30.180  31.880  1.00  0.00     0.216 C 
BRANCH  71  72
ATOM     72  N   THR     3      35.020  30.390  33.270  1.00  0.00    -0.226 NA
ATOM     73  C   CYS     2      33.750  30.450  33.660  1.00  0.00     0.275 C 
ATOM     74  O   CYS     2      32.810  30.240  32.900  1.00  0.00    -0.268 OA
BRANCH  73  75
ATOM     75  CA  CYS     2      33.490  30.520  35.180  1.00  0.00     0.198 C 
BRANCH  75  76
ATOM     76  CB  CYS     2      33.720  31.950  35.680  1.00  0.00     0.103 C 
ATOM     77  SG  CYS     2      33.420  32.090  37.480  1.00  0.00    -0.080 SA
ENDBRANCH  75  76
BRANCH  75  78
ATOM     78  N   CYS     2      34.130  29.540  36.100  1.00  0.00    -0.228 NA
ATOM     79  C   PHE     1      34.440  28.270  35.810  1.00  0.00     0.289 C 
ATOM     80  O   PHE     1      34.580  27.860  34.670  1.00  0.00    -0.268 OA
BRANCH  79  81
ATOM     81  CA  PHE     1      35.060  27.400  36.910  1.00  0.00     0.385 C 
ATOM     82  N   PHE     1      36.500  27.700  37.060  1.00  0.00     0.626 N 
BRANCH  81  83
ATOM     83  CB  PHE     1      34.320  27.480  38.250  1.00  0.00     0.075 C 
BRANCH  83  84
ATOM     84  CG  PHE     1      32.910  26.890  38.170  1.00  0.00    -0.019 A 
ATOM     85  CD2 PHE     1      31.810  27.720  38.340  1.00  0.00    -0.004 A 
ATOM     86  CE2 PHE     1      30.520  27.180  38.320  1.00  0.00    -0.000 A 
ATOM     87  CZ  PHE     1      30.340  25.820  38.130  1.00  0.00    -0.000 A 
ATOM     88  CE1 PHE     1      31.440  24.990  37.950  1.00  0.00    -0.000 A 
ATOM     89  CD1 PHE     1      32.720  25.520  37.980  1.00  0.00    -0.004 A 
ENDBRANCH  83  84
ENDBRANCH  81  83
ENDBRANCH  79  81
ENDBRANCH  75  78
ENDBRANCH  73  75
ENDBRANCH  71  72
BRANCH  71  90
ATOM     90  CB  THR     3      37.030  30.000  31.890  1.00  0.00     0.184 C 
ATOM     91  OG1 THR     3      37.610  30.690  33.020  1.00  0.00    -0.221 OA
ATOM     92  CG2 THR     3      37.660  30.520  30.590  1.00  0.00     0.038 C 
ENDBRANCH  71  90
ENDBRANCH  69  71
ENDBRANCH  63  68
ENDBRANCH   1  63
TORSDOF 37
