REMARK  32 active torsions:
REMARK  status: ('A' for Active; 'I' for Inactive)
REMARK    1  A    between atoms: CA_2  and  C_10 
REMARK    2  A    between atoms: CA_2  and  CB_3 
REMARK    3  A    between atoms: CB_3  and  CG_4 
REMARK    4  A    between atoms: CG_4  and  CD_5 
REMARK    5  A    between atoms: CD_5  and  NE_6 
REMARK       I    between atoms: C_10  and  N_12 
REMARK    6  A    between atoms: N_12  and  CA_13 
REMARK    7  A    between atoms: CA_13  and  CB_14 
REMARK    8  A    between atoms: CA_13  and  C_17 
REMARK       I    between atoms: C_17  and  N_19 
REMARK    9  A    between atoms: N_19  and  CA_20 
REMARK   10  A    between atoms: CA_20  and  CB_21 
REMARK   11  A    between atoms: CA_20  and  C_23 
REMARK       I    between atoms: C_23  and  N_25 
REMARK   12  A    between atoms: N_25  and  CA_26 
REMARK   13  A    between atoms: CA_26  and  CB_27 
REMARK   14  A    between atoms: CA_26  and  C_35 
REMARK   15  A    between atoms: CB_27  and  CG_28 
REMARK       I    between atoms: C_35  and  N_37 
REMARK       I    between atoms: N_37  and  CA_38 
REMARK       I    between atoms: CA_38  and  C_40 
REMARK       I    between atoms: C_40  and  N_42 
REMARK       I    between atoms: N_42  and  CA_43 
REMARK   16  A    between atoms: CA_43  and  CB_44 
REMARK       I    between atoms: CA_43  and  C_48 
REMARK   17  A    between atoms: CB_44  and  CG1_45 
REMARK       I    between atoms: C_48  and  N_50 
REMARK       I    between atoms: CA_51  and  C_55 
REMARK       I    between atoms: C_55  and  N_57 
REMARK       I    between atoms: N_57  and  CA_58 
REMARK   18  A    between atoms: CA_58  and  C_63 
REMARK   19  A    between atoms: CA_58  and  CB_59 
REMARK   20  A    between atoms: CB_59  and  CG_60 
REMARK       I    between atoms: C_63  and  N_65 
REMARK   21  A    between atoms: CA_66  and  C_70 
REMARK       I    between atoms: C_70  and  N_72 
REMARK   22  A    between atoms: N_72  and  CA_73 
REMARK   23  A    between atoms: CA_73  and  C_78 
REMARK   24  A    between atoms: CA_73  and  CB_74 
REMARK   25  A    between atoms: CB_74  and  CG1_75 
REMARK       I    between atoms: C_78  and  N_80 
REMARK   26  A    between atoms: N_80  and  CA_81 
REMARK   27  A    between atoms: CA_81  and  C_84 
REMARK   28  A    between atoms: CA_81  and  CB_82 
REMARK       I    between atoms: C_84  and  N_86 
REMARK   29  A    between atoms: N_86  and  CA_87 
REMARK   30  A    between atoms: CA_87  and  CB_88 
REMARK   31  A    between atoms: CA_87  and  C_96 
REMARK   32  A    between atoms: CB_88  and  CG_89 
ROOT
ATOM      1  C   TYR     4      33.630  30.290  30.060  1.00  0.00     0.275 C 
ATOM      2  O   TYR     4      34.560  30.770  30.710  1.00  0.00    -0.268 OA
ATOM      3  N   ALA     5      32.740  31.040  29.420  1.00  0.00    -0.229 NA
ATOM      4  CA  ALA     5      32.710  32.520  29.510  1.00  0.00     0.186 C 
ATOM      5  CB  ALA     5      31.870  33.080  28.360  1.00  0.00     0.037 C 
ATOM      6  C   ALA     5      32.170  33.030  30.860  1.00  0.00     0.274 C 
ATOM      7  O   ALA     5      32.600  34.060  31.350  1.00  0.00    -0.268 OA
ATOM      8  N   ILE     6      31.100  32.370  31.330  1.00  0.00    -0.229 NA
ATOM      9  CA  ILE     6      30.490  32.590  32.650  1.00  0.00     0.184 C 
ATOM     10  C   ILE     6      30.360  31.200  33.310  1.00  0.00     0.256 C 
ATOM     11  O   ILE     6      29.540  30.420  32.830  1.00  0.00    -0.270 OA
ATOM     12  N   PRO     7      31.180  30.870  34.320  1.00  0.00    -0.312 N 
ATOM     13  CA  PRO     7      31.190  29.550  35.000  1.00  0.00     0.165 C 
ATOM     14  CB  PRO     7      32.490  29.540  35.810  1.00  0.00     0.034 C 
ATOM     15  CG  PRO     7      32.700  31.020  36.140  1.00  0.00     0.027 C 
ATOM     16  CD  PRO     7      32.230  31.740  34.880  1.00  0.00     0.105 C 
ATOM     17  C   PRO     7      29.940  29.220  35.830  1.00  0.00     0.272 C 
ATOM     18  O   PRO     7      29.990  28.970  37.040  1.00  0.00    -0.269 OA
ATOM     19  N   LEU     8      28.810  29.200  35.130  1.00  0.00    -0.229 NA
ATOM     20  CA  LEU     8      27.440  28.930  35.630  1.00  0.00     0.184 C 
ENDROOT
BRANCH   9  21
ATOM     21  CB  ILE     6      29.080  33.220  32.520  1.00  0.00     0.032 C 
ATOM     22  CG2 ILE     6      28.610  33.680  33.910  1.00  0.00     0.003 C 
BRANCH  21  23
ATOM     23  CG1 ILE     6      29.040  34.410  31.560  1.00  0.00     0.002 C 
ATOM     24  CD  ILE     6      27.600  34.790  31.170  1.00  0.00     0.000 C 
ENDBRANCH  21  23
ENDBRANCH   9  21
BRANCH  20  25
ATOM     25  C   LEU     8      26.730  27.930  34.690  1.00  0.00     0.256 C 
ATOM     26  N   PRO     9      25.840  27.070  35.210  1.00  0.00    -0.312 N 
ATOM     27  CA  PRO     9      25.210  25.920  34.500  1.00  0.00     0.165 C 
ATOM     28  CD  PRO     9      25.210  27.210  36.540  1.00  0.00     0.105 C 
ATOM     29  CB  PRO     9      23.860  25.740  35.200  1.00  0.00     0.034 C 
ATOM     30  CG  PRO     9      24.220  26.050  36.650  1.00  0.00     0.027 C 
ATOM     31  O   LEU     8      26.910  28.050  33.480  1.00  0.00    -0.270 OA
BRANCH  27  32
ATOM     32  C   PRO     9      25.040  25.880  32.970  1.00  0.00     0.272 C 
ATOM     33  O   PRO     9      25.470  24.920  32.340  1.00  0.00    -0.269 OA
ATOM     34  N   ILE    10      24.410  26.900  32.390  1.00  0.00    -0.229 NA
BRANCH  34  35
ATOM     35  CA  ILE    10      23.960  26.910  30.970  1.00  0.00     0.186 C 
BRANCH  35  36
ATOM     36  C   ILE    10      25.020  26.700  29.870  1.00  0.00     0.274 C 
ATOM     37  N   CYS    11      24.580  25.960  28.850  1.00  0.00    -0.228 NA
ATOM     38  O   ILE    10      26.110  27.280  29.850  1.00  0.00    -0.268 OA
BRANCH  37  39
ATOM     39  CA  CYS    11      25.430  25.580  27.700  1.00  0.00     0.198 C 
BRANCH  39  40
ATOM     40  C   CYS    11      24.810  25.880  26.330  1.00  0.00     0.275 C 
ATOM     41  O   CYS    11      23.680  25.470  26.070  1.00  0.00    -0.268 OA
ATOM     42  N   TYR    12      25.420  26.880  25.700  1.00  0.00    -0.227 NA
BRANCH  42  43
ATOM     43  CA  TYR    12      25.400  27.120  24.240  1.00  0.00     0.197 C 
BRANCH  43  44
ATOM     44  CB  TYR    12      24.370  28.150  23.750  1.00  0.00     0.062 C 
BRANCH  44  45
ATOM     45  CG  TYR    12      23.680  29.070  24.780  1.00  0.00    -0.019 A 
ATOM     46  CD1 TYR    12      22.710  28.540  25.620  1.00  0.00    -0.002 A 
ATOM     47  CE1 TYR    12      22.020  29.360  26.500  1.00  0.00     0.027 A 
ATOM     48  CZ  TYR    12      22.280  30.720  26.530  1.00  0.00     0.131 A 
ATOM     49  OH  TYR    12      21.710  31.480  27.500  1.00  0.00    -0.190 OA
ATOM     50  CE2 TYR    12      23.220  31.270  25.670  1.00  0.00     0.027 A 
ATOM     51  CD2 TYR    12      23.920  30.440  24.800  1.00  0.00    -0.002 A 
ENDBRANCH  44  45
ENDBRANCH  43  44
BRANCH  43  52
ATOM     52  C   TYR    12      26.830  27.530  23.840  1.00  0.00     0.209 C 
ATOM     53  O1  TYR    12      27.480  26.760  23.110  1.00  0.00    -0.646 OA
ATOM     54  O2  TYR    12      27.400  28.360  24.580  1.00  0.00    -0.646 OA
ENDBRANCH  43  52
ENDBRANCH  42  43
ENDBRANCH  39  40
BRANCH  39  55
ATOM     55  CB  CYS    11      25.780  24.090  27.740  1.00  0.00     0.103 C 
ATOM     56  SG  CYS    11      27.120  23.660  26.570  1.00  0.00    -0.080 SA
ENDBRANCH  39  55
ENDBRANCH  37  39
ENDBRANCH  35  36
BRANCH  35  57
ATOM     57  CB  ILE    10      23.120  28.160  30.670  1.00  0.00     0.032 C 
ATOM     58  CG2 ILE    10      21.740  28.010  31.320  1.00  0.00     0.003 C 
BRANCH  57  59
ATOM     59  CG1 ILE    10      23.820  29.460  31.080  1.00  0.00     0.002 C 
ATOM     60  CD  ILE    10      23.100  30.710  30.570  1.00  0.00     0.000 C 
ENDBRANCH  57  59
ENDBRANCH  35  57
ENDBRANCH  34  35
ENDBRANCH  27  32
ENDBRANCH  20  25
BRANCH  20  61
ATOM     61  CB  LEU     8      26.660  30.260  35.670  1.00  0.00     0.034 C 
BRANCH  61  62
ATOM     62  CG  LEU     8      27.090  31.220  36.800  1.00  0.00     0.002 C 
ATOM     63  CD1 LEU     8      26.290  32.510  36.700  1.00  0.00     0.000 C 
ATOM     64  CD2 LEU     8      26.920  30.590  38.180  1.00  0.00     0.000 C 
ENDBRANCH  61  62
ENDBRANCH  20  61
BRANCH   1  65
ATOM     65  CA  TYR     4      33.560  28.770  29.780  1.00  0.00     0.191 C 
BRANCH  65  66
ATOM     66  N   TYR     4      32.170  28.250  29.720  1.00  0.00    -0.228 NA
ATOM     67  C   CYS     3      31.370  28.190  30.780  1.00  0.00     0.275 C 
ATOM     68  O   CYS     3      31.720  28.640  31.870  1.00  0.00    -0.268 OA
BRANCH  67  69
ATOM     69  CA  CYS     3      29.890  27.770  30.560  1.00  0.00     0.198 C 
BRANCH  69  70
ATOM     70  N   CYS     3      29.180  28.330  29.380  1.00  0.00    -0.228 NA
ATOM     71  C   VAL     2      29.330  29.590  28.960  1.00  0.00     0.274 C 
ATOM     72  O   VAL     2      30.000  30.430  29.560  1.00  0.00    -0.268 OA
BRANCH  71  73
ATOM     73  CA  VAL     2      28.760  29.980  27.580  1.00  0.00     0.186 C 
BRANCH  73  74
ATOM     74  CB  VAL     2      27.230  30.150  27.570  1.00  0.00     0.032 C 
ATOM     75  CG2 VAL     2      26.850  30.990  26.350  1.00  0.00     0.003 C 
ATOM     76  CG1 VAL     2      26.680  30.850  28.810  1.00  0.00     0.003 C 
ENDBRANCH  73  74
BRANCH  73  77
ATOM     77  N   VAL     2      29.220  29.180  26.420  1.00  0.00    -0.229 NA
ATOM     78  C   ARG     1      30.500  28.950  26.120  1.00  0.00     0.289 C 
ATOM     79  O   ARG     1      31.410  29.150  26.930  1.00  0.00    -0.268 OA
BRANCH  78  80
ATOM     80  CA  ARG     1      30.900  28.280  24.790  1.00  0.00     0.381 C 
ATOM     81  N   ARG     1      30.100  27.110  24.370  1.00  0.00     0.626 N 
BRANCH  80  82
ATOM     82  CB  ARG     1      30.980  29.300  23.640  1.00  0.00     0.051 C 
BRANCH  82  83
ATOM     83  CG  ARG     1      31.740  30.610  23.910  1.00  0.00     0.030 C 
BRANCH  83  84
ATOM     84  CD  ARG     1      33.250  30.480  24.190  1.00  0.00     0.145 C 
BRANCH  84  85
ATOM     85  NE  ARG     1      33.830  31.830  24.310  1.00  0.00    -0.083 NA
ATOM     86  CZ  ARG     1      35.110  32.140  24.610  1.00  0.00     0.782 C 
ATOM     87  NH1 ARG     1      36.020  31.200  24.880  1.00  0.00     0.063 N 
ATOM     88  NH2 ARG     1      35.490  33.430  24.630  1.00  0.00     0.063 N 
ENDBRANCH  84  85
ENDBRANCH  83  84
ENDBRANCH  82  83
ENDBRANCH  80  82
ENDBRANCH  78  80
ENDBRANCH  73  77
ENDBRANCH  71  73
ENDBRANCH  69  70
BRANCH  69  89
ATOM     89  CB  CYS     3      29.750  26.250  30.580  1.00  0.00     0.103 C 
ATOM     90  SG  CYS     3      30.600  25.390  31.950  1.00  0.00    -0.080 SA
ENDBRANCH  69  89
ENDBRANCH  67  69
ENDBRANCH  65  66
BRANCH  65  91
ATOM     91  CB  TYR     4      34.320  28.440  28.480  1.00  0.00     0.060 C 
BRANCH  91  92
ATOM     92  CG  TYR     4      35.770  28.940  28.460  1.00  0.00    -0.020 A 
ATOM     93  CD1 TYR     4      36.790  28.140  28.960  1.00  0.00    -0.002 A 
ATOM     94  CE1 TYR     4      38.090  28.610  29.000  1.00  0.00     0.027 A 
ATOM     95  CZ  TYR     4      38.390  29.880  28.540  1.00  0.00     0.131 A 
ATOM     96  OH  TYR     4      39.680  30.220  28.270  1.00  0.00    -0.190 OA
ATOM     97  CE2 TYR     4      37.370  30.700  28.070  1.00  0.00     0.027 A 
ATOM     98  CD2 TYR     4      36.070  30.220  28.020  1.00  0.00    -0.002 A 
ENDBRANCH  91  92
ENDBRANCH  65  91
ENDBRANCH   1  65
TORSDOF 38
