REMARK  32 active torsions:
REMARK  status: ('A' for Active; 'I' for Inactive)
REMARK    1  A    between atoms: CA_2  and  CB_3 
REMARK    2  A    between atoms: CA_2  and  C_10 
REMARK    3  A    between atoms: CB_3  and  CG_4 
REMARK       I    between atoms: C_10  and  N_12 
REMARK    4  A    between atoms: N_12  and  CA_13 
REMARK    5  A    between atoms: CA_13  and  CB_14 
REMARK    6  A    between atoms: CA_13  and  C_16 
REMARK       I    between atoms: C_16  and  N_18 
REMARK    7  A    between atoms: N_18  and  CA_19 
REMARK    8  A    between atoms: CA_19  and  C_25 
REMARK    9  A    between atoms: CA_19  and  CB_20 
REMARK   10  A    between atoms: CB_20  and  CG_21 
REMARK   11  A    between atoms: CG_21  and  CD_22 
REMARK   12  A    between atoms: CD_22  and  CE_23 
REMARK       I    between atoms: C_25  and  N_27 
REMARK       I    between atoms: N_27  and  CA_28 
REMARK   13  A    between atoms: CA_28  and  CB_29 
REMARK       I    between atoms: CA_28  and  C_31 
REMARK       I    between atoms: C_31  and  N_33 
REMARK       I    between atoms: N_33  and  CA_34 
REMARK   14  A    between atoms: CA_34  and  CB_35 
REMARK       I    between atoms: CA_34  and  C_39 
REMARK   15  A    between atoms: CB_35  and  CG_36 
REMARK       I    between atoms: C_39  and  N_41 
REMARK       I    between atoms: CA_42  and  C_46 
REMARK       I    between atoms: C_46  and  N_48 
REMARK       I    between atoms: N_48  and  CA_49 
REMARK       I    between atoms: CA_49  and  C_54 
REMARK   16  A    between atoms: CA_49  and  CB_50 
REMARK   17  A    between atoms: CB_50  and  CG_51 
REMARK       I    between atoms: C_54  and  N_56 
REMARK       I    between atoms: CA_57  and  C_61 
REMARK       I    between atoms: C_61  and  N_63 
REMARK       I    between atoms: N_63  and  CA_64 
REMARK   18  A    between atoms: CA_64  and  C_69 
REMARK   19  A    between atoms: CA_64  and  CB_65 
REMARK   20  A    between atoms: CB_65  and  CG_66 
REMARK       I    between atoms: C_69  and  N_71 
REMARK   21  A    between atoms: N_71  and  CA_72 
REMARK   22  A    between atoms: CA_72  and  CB_73 
REMARK   23  A    between atoms: CA_72  and  C_75 
REMARK       I    between atoms: C_75  and  N_77 
REMARK   24  A    between atoms: N_77  and  CA_78 
REMARK   25  A    between atoms: CA_78  and  C_82 
REMARK   26  A    between atoms: CA_78  and  CB_79 
REMARK       I    between atoms: C_82  and  N_84 
REMARK   27  A    between atoms: N_84  and  CA_85 
REMARK   28  A    between atoms: CA_85  and  CB_86 
REMARK   29  A    between atoms: CA_85  and  C_91 
REMARK   30  A    between atoms: CB_86  and  CG_87 
REMARK   31  A    between atoms: CG_87  and  CD_88 
REMARK   32  A    between atoms: CD_88  and  CE_89 
ROOT
ATOM      1  C   LYS     3      32.640  37.900  34.700  1.00  0.00     0.274 C 
ATOM      2  O   LYS     3      31.990  38.880  35.060  1.00  0.00    -0.268 OA
ATOM      3  N   SER     4      33.370  37.900  33.590  1.00  0.00    -0.226 NA
ATOM      4  CA  SER     4      33.350  38.970  32.550  1.00  0.00     0.219 C 
ATOM      5  C   SER     4      32.100  39.010  31.650  1.00  0.00     0.277 C 
ATOM      6  O   SER     4      31.840  40.030  31.020  1.00  0.00    -0.268 OA
ATOM      7  N   LEU     5      31.410  37.880  31.520  1.00  0.00    -0.229 NA
ATOM      8  CA  LEU     5      30.340  37.670  30.520  1.00  0.00     0.184 C 
ATOM      9  C   LEU     5      29.000  37.450  31.240  1.00  0.00     0.256 C 
ATOM     10  O   LEU     5      28.970  36.720  32.230  1.00  0.00    -0.270 OA
ATOM     11  N   PRO     6      27.890  38.030  30.740  1.00  0.00    -0.312 N 
ATOM     12  CA  PRO     6      26.530  37.820  31.290  1.00  0.00     0.165 C 
ATOM     13  CB  PRO     6      25.620  38.610  30.340  1.00  0.00     0.034 C 
ATOM     14  CG  PRO     6      26.500  39.790  29.940  1.00  0.00     0.027 C 
ATOM     15  CD  PRO     6      27.890  39.160  29.790  1.00  0.00     0.105 C 
ATOM     16  C   PRO     6      26.070  36.360  31.380  1.00  0.00     0.272 C 
ATOM     17  O   PRO     6      25.310  36.010  32.280  1.00  0.00    -0.269 OA
ATOM     18  N   LEU     7      26.490  35.520  30.440  1.00  0.00    -0.229 NA
ATOM     19  CA  LEU     7      26.120  34.080  30.380  1.00  0.00     0.184 C 
ATOM     20  C   LEU     7      26.740  33.220  31.500  1.00  0.00     0.256 C 
ATOM     21  O   LEU     7      27.970  33.220  31.640  1.00  0.00    -0.270 OA
ATOM     22  N   PRO     8      25.920  32.420  32.200  1.00  0.00    -0.312 N 
ATOM     23  CA  PRO     8      26.370  31.490  33.250  1.00  0.00     0.165 C 
ATOM     24  CB  PRO     8      25.090  31.030  33.950  1.00  0.00     0.034 C 
ATOM     25  CG  PRO     8      24.020  31.150  32.870  1.00  0.00     0.027 C 
ATOM     26  CD  PRO     8      24.450  32.390  32.080  1.00  0.00     0.105 C 
ATOM     27  C   PRO     8      27.190  30.310  32.690  1.00  0.00     0.272 C 
ATOM     28  O   PRO     8      26.680  29.480  31.940  1.00  0.00    -0.269 OA
ATOM     29  N   LEU     9      28.490  30.380  32.920  1.00  0.00    -0.229 NA
ATOM     30  CA  LEU     9      29.470  29.380  32.440  1.00  0.00     0.186 C 
ENDROOT
BRANCH  19  31
ATOM     31  CB  LEU     7      26.490  33.500  29.010  1.00  0.00     0.034 C 
BRANCH  31  32
ATOM     32  CG  LEU     7      25.700  34.120  27.850  1.00  0.00     0.002 C 
ATOM     33  CD2 LEU     7      24.200  33.810  27.960  1.00  0.00     0.000 C 
ATOM     34  CD1 LEU     7      26.240  33.600  26.520  1.00  0.00     0.000 C 
ENDBRANCH  31  32
ENDBRANCH  19  31
BRANCH   8  35
ATOM     35  CB  LEU     5      30.740  36.410  29.730  1.00  0.00     0.034 C 
BRANCH  35  36
ATOM     36  CG  LEU     5      30.010  36.240  28.390  1.00  0.00     0.002 C 
ATOM     37  CD1 LEU     5      30.510  37.240  27.360  1.00  0.00     0.000 C 
ATOM     38  CD2 LEU     5      30.150  34.800  27.890  1.00  0.00     0.000 C 
ENDBRANCH  35  36
ENDBRANCH   8  35
BRANCH   4  39
ATOM     39  CB  SER     4      34.530  38.830  31.590  1.00  0.00     0.216 C 
ATOM     40  OG  SER     4      35.770  38.770  32.310  1.00  0.00    -0.218 OA
ENDBRANCH   4  39
BRANCH  30  41
ATOM     41  C   LEU     9      30.290  28.710  33.560  1.00  0.00     0.274 C 
ATOM     42  N   SER    10      30.580  27.430  33.320  1.00  0.00    -0.226 NA
ATOM     43  O   LEU     9      30.810  29.390  34.450  1.00  0.00    -0.268 OA
BRANCH  42  44
ATOM     44  CA  SER    10      31.460  26.610  34.190  1.00  0.00     0.219 C 
BRANCH  44  45
ATOM     45  CB  SER    10      30.760  25.350  34.710  1.00  0.00     0.216 C 
ATOM     46  OG  SER    10      31.640  24.700  35.630  1.00  0.00    -0.218 OA
ENDBRANCH  44  45
BRANCH  44  47
ATOM     47  C   SER    10      32.690  26.190  33.390  1.00  0.00     0.277 C 
ATOM     48  O   SER    10      32.580  25.550  32.350  1.00  0.00    -0.268 OA
ATOM     49  N   VAL    11      33.790  26.840  33.760  1.00  0.00    -0.229 NA
BRANCH  49  50
ATOM     50  CA  VAL    11      35.110  26.720  33.090  1.00  0.00     0.186 C 
BRANCH  50  51
ATOM     51  C   VAL    11      36.230  26.500  34.130  1.00  0.00     0.274 C 
ATOM     52  N   LYS    12      37.380  26.070  33.630  1.00  0.00    -0.227 NA
ATOM     53  O   VAL    11      35.980  26.630  35.330  1.00  0.00    -0.268 OA
BRANCH  52  54
ATOM     54  CA  LYS    12      38.620  26.030  34.410  1.00  0.00     0.193 C 
BRANCH  54  55
ATOM     55  CB  LYS    12      39.300  24.660  34.310  1.00  0.00     0.036 C 
BRANCH  55  56
ATOM     56  CG  LYS    12      38.460  23.500  34.840  1.00  0.00     0.005 C 
BRANCH  56  57
ATOM     57  CD  LYS    12      39.200  22.190  34.610  1.00  0.00     0.041 C 
BRANCH  57  58
ATOM     58  CE  LYS    12      38.390  20.980  35.080  1.00  0.00     0.338 C 
ATOM     59  NZ  LYS    12      39.140  19.750  34.810  1.00  0.00     0.618 N 
ENDBRANCH  57  58
ENDBRANCH  56  57
ENDBRANCH  55  56
ENDBRANCH  54  55
BRANCH  54  60
ATOM     60  C   LYS    12      39.490  27.110  33.740  1.00  0.00     0.209 C 
ATOM     61  O2  LYS    12      40.030  26.780  32.660  1.00  0.00    -0.646 OA
ATOM     62  O1  LYS    12      39.260  28.300  34.070  1.00  0.00    -0.646 OA
ENDBRANCH  54  60
ENDBRANCH  52  54
ENDBRANCH  50  51
BRANCH  50  63
ATOM     63  CB  VAL    11      35.430  27.950  32.220  1.00  0.00     0.032 C 
ATOM     64  CG1 VAL    11      34.510  28.020  30.990  1.00  0.00     0.003 C 
ATOM     65  CG2 VAL    11      35.360  29.270  33.000  1.00  0.00     0.003 C 
ENDBRANCH  50  63
ENDBRANCH  49  50
ENDBRANCH  44  47
ENDBRANCH  42  44
ENDBRANCH  30  41
BRANCH  30  66
ATOM     66  CB  LEU     9      30.440  30.030  31.450  1.00  0.00     0.034 C 
BRANCH  66  67
ATOM     67  CG  LEU     9      29.780  30.350  30.110  1.00  0.00     0.002 C 
ATOM     68  CD2 LEU     9      29.660  29.090  29.250  1.00  0.00     0.000 C 
ATOM     69  CD1 LEU     9      30.620  31.400  29.380  1.00  0.00     0.000 C 
ENDBRANCH  66  67
ENDBRANCH  30  66
BRANCH   1  70
ATOM     70  CA  LYS     3      32.760  36.660  35.630  1.00  0.00     0.186 C 
BRANCH  70  71
ATOM     71  N   LYS     3      32.900  35.330  34.970  1.00  0.00    -0.229 NA
ATOM     72  C   CYS     2      32.290  34.940  33.840  1.00  0.00     0.275 C 
ATOM     73  O   CYS     2      31.580  35.680  33.180  1.00  0.00    -0.268 OA
BRANCH  72  74
ATOM     74  CA  CYS     2      32.690  33.580  33.220  1.00  0.00     0.198 C 
BRANCH  74  75
ATOM     75  N   CYS     2      33.980  33.480  32.460  1.00  0.00    -0.228 NA
ATOM     76  C   PHE     1      34.840  34.480  32.210  1.00  0.00     0.289 C 
ATOM     77  O   PHE     1      34.890  35.510  32.860  1.00  0.00    -0.268 OA
BRANCH  76  78
ATOM     78  CA  PHE     1      36.110  34.180  31.390  1.00  0.00     0.385 C 
ATOM     79  N   PHE     1      37.220  33.900  32.320  1.00  0.00     0.626 N 
BRANCH  78  80
ATOM     80  CB  PHE     1      35.990  33.040  30.370  1.00  0.00     0.075 C 
BRANCH  80  81
ATOM     81  CG  PHE     1      35.150  33.430  29.150  1.00  0.00    -0.019 A 
ATOM     82  CD2 PHE     1      34.030  32.670  28.830  1.00  0.00    -0.004 A 
ATOM     83  CE2 PHE     1      33.290  32.960  27.690  1.00  0.00    -0.000 A 
ATOM     84  CZ  PHE     1      33.650  34.020  26.870  1.00  0.00    -0.000 A 
ATOM     85  CE1 PHE     1      34.770  34.790  27.190  1.00  0.00    -0.000 A 
ATOM     86  CD1 PHE     1      35.520  34.490  28.320  1.00  0.00    -0.004 A 
ENDBRANCH  80  81
ENDBRANCH  78  80
ENDBRANCH  76  78
ENDBRANCH  74  75
BRANCH  74  87
ATOM     87  CB  CYS     2      32.560  32.420  34.220  1.00  0.00     0.103 C 
ATOM     88  SG  CYS     2      30.880  32.270  34.930  1.00  0.00    -0.080 SA
ENDBRANCH  74  87
ENDBRANCH  72  74
ENDBRANCH  70  71
BRANCH  70  89
ATOM     89  CB  LYS     3      33.940  36.850  36.590  1.00  0.00     0.034 C 
BRANCH  89  90
ATOM     90  CG  LYS     3      33.800  38.060  37.520  1.00  0.00     0.005 C 
BRANCH  90  91
ATOM     91  CD  LYS     3      35.040  38.340  38.370  1.00  0.00     0.041 C 
BRANCH  91  92
ATOM     92  CE  LYS     3      34.830  39.610  39.190  1.00  0.00     0.338 C 
ATOM     93  NZ  LYS     3      35.990  39.940  40.040  1.00  0.00     0.618 N 
ENDBRANCH  91  92
ENDBRANCH  90  91
ENDBRANCH  89  90
ENDBRANCH  70  89
ENDBRANCH   1  70
TORSDOF 41
