REMARK  32 active torsions:
REMARK  status: ('A' for Active; 'I' for Inactive)
REMARK    1  A    between atoms: CA_2  and  C_7 
REMARK    2  A    between atoms: CA_2  and  CB_3 
REMARK    3  A    between atoms: CB_3  and  CG1_4 
REMARK       I    between atoms: C_7  and  N_9 
REMARK    4  A    between atoms: N_9  and  CA_10 
REMARK    5  A    between atoms: CA_10  and  C_15 
REMARK    6  A    between atoms: CA_10  and  CB_11 
REMARK    7  A    between atoms: CB_11  and  CG_12 
REMARK       I    between atoms: C_15  and  N_17 
REMARK       I    between atoms: CA_18  and  C_22 
REMARK       I    between atoms: C_22  and  N_24 
REMARK       I    between atoms: N_24  and  CA_25 
REMARK    8  A    between atoms: CA_25  and  CB_26 
REMARK       I    between atoms: CA_25  and  C_36 
REMARK    9  A    between atoms: CB_26  and  CG_27 
REMARK       I    between atoms: C_36  and  N_38 
REMARK       I    between atoms: N_38  and  CA_39 
REMARK   10  A    between atoms: CA_39  and  CB_40 
REMARK       I    between atoms: CA_39  and  C_45 
REMARK   11  A    between atoms: CB_40  and  CG_41 
REMARK   12  A    between atoms: CG_41  and  CD_42 
REMARK   13  A    between atoms: CD_42  and  CE_43 
REMARK       I    between atoms: C_45  and  N_47 
REMARK       I    between atoms: N_47  and  CA_48 
REMARK       I    between atoms: CA_48  and  C_59 
REMARK   14  A    between atoms: CA_48  and  CB_49 
REMARK   15  A    between atoms: CB_49  and  CG_50 
REMARK       I    between atoms: C_59  and  N_61 
REMARK       I    between atoms: CA_62  and  C_66 
REMARK       I    between atoms: C_66  and  N_68 
REMARK       I    between atoms: N_68  and  CA_69 
REMARK       I    between atoms: CA_69  and  C_80 
REMARK   16  A    between atoms: CA_69  and  CB_70 
REMARK   17  A    between atoms: CB_70  and  CG_71 
REMARK       I    between atoms: C_80  and  N_82 
REMARK       I    between atoms: N_82  and  CA_83 
REMARK   18  A    between atoms: CA_83  and  CB_84 
REMARK       I    between atoms: CA_83  and  C_94 
REMARK   19  A    between atoms: CB_84  and  CG_85 
REMARK       I    between atoms: C_94  and  N_96 
REMARK       I    between atoms: CA_97  and  C_101 
REMARK       I    between atoms: C_101  and  N_103 
REMARK       I    between atoms: N_103  and  CA_104 
REMARK       I    between atoms: CA_104  and  C_115 
REMARK   20  A    between atoms: CA_104  and  CB_105 
REMARK   21  A    between atoms: CB_105  and  CG_106 
REMARK       I    between atoms: C_115  and  N_117 
REMARK       I    between atoms: N_117  and  CA_118 
REMARK   22  A    between atoms: CA_118  and  CB_119 
REMARK   23  A    between atoms: CA_118  and  C_126 
REMARK   24  A    between atoms: CB_119  and  CG_120 
REMARK   25  A    between atoms: CG_120  and  CD_121 
REMARK   26  A    between atoms: CD_121  and  NE_122 
REMARK       I    between atoms: NE_122  and  CZ_123 
REMARK       I    between atoms: C_126  and  N_128 
REMARK   27  A    between atoms: N_128  and  CA_129 
REMARK   28  A    between atoms: CA_129  and  CB_130 
REMARK   29  A    between atoms: CA_129  and  C_137 
REMARK   30  A    between atoms: CB_130  and  CG_131 
REMARK   31  A    between atoms: CG_131  and  CD_132 
REMARK   32  A    between atoms: CD_132  and  NE_133 
REMARK       I    between atoms: NE_133  and  CZ_134 
ROOT
ATOM      1  C   LEU     2      27.360  27.380  35.900  1.00  0.00     0.256 C 
ATOM      2  O   LEU     2      26.580  27.480  34.960  1.00  0.00    -0.270 OA
ATOM      3  N   PRO     3      27.650  28.430  36.690  1.00  0.00    -0.312 N 
ATOM      4  CA  PRO     3      27.000  29.750  36.520  1.00  0.00     0.165 C 
ATOM      5  CB  PRO     3      27.400  30.560  37.750  1.00  0.00     0.034 C 
ATOM      6  CG  PRO     3      28.750  29.970  38.150  1.00  0.00     0.027 C 
ATOM      7  CD  PRO     3      28.570  28.480  37.850  1.00  0.00     0.105 C 
ATOM      8  C   PRO     3      27.430  30.460  35.230  1.00  0.00     0.272 C 
ATOM      9  O   PRO     3      28.620  30.610  34.950  1.00  0.00    -0.269 OA
ATOM     10  N   TRP     4      26.440  31.050  34.570  1.00  0.00    -0.228 NA
ATOM     11  CA  TRP     4      26.650  31.800  33.310  1.00  0.00     0.191 C 
ATOM     12  C   TRP     4      27.030  33.280  33.490  1.00  0.00     0.275 C 
ATOM     13  O   TRP     4      26.440  34.200  32.920  1.00  0.00    -0.268 OA
ATOM     14  N   LYS     5      27.990  33.460  34.390  1.00  0.00    -0.229 NA
ATOM     15  CA  LYS     5      28.630  34.750  34.760  1.00  0.00     0.186 C 
ATOM     16  C   LYS     5      30.130  34.470  34.960  1.00  0.00     0.274 C 
ATOM     17  O   LYS     5      30.540  34.040  36.030  1.00  0.00    -0.268 OA
ATOM     18  N   TRP     6      30.850  34.500  33.840  1.00  0.00    -0.228 NA
ATOM     19  CA  TRP     6      32.270  34.080  33.710  1.00  0.00     0.189 C 
ATOM     20  C   TRP     6      32.750  34.370  32.270  1.00  0.00     0.257 C 
ATOM     21  O   TRP     6      31.910  34.720  31.440  1.00  0.00    -0.270 OA
ATOM     22  N   PRO     7      34.060  34.500  32.040  1.00  0.00    -0.312 N 
ATOM     23  CA  PRO     7      34.650  34.410  30.680  1.00  0.00     0.165 C 
ATOM     24  CB  PRO     7      36.140  34.600  30.930  1.00  0.00     0.034 C 
ATOM     25  CG  PRO     7      36.140  35.670  32.010  1.00  0.00     0.027 C 
ATOM     26  CD  PRO     7      34.980  35.250  32.920  1.00  0.00     0.105 C 
ATOM     27  C   PRO     7      34.330  33.130  29.880  1.00  0.00     0.272 C 
ATOM     28  O   PRO     7      33.490  33.180  28.980  1.00  0.00    -0.269 OA
ATOM     29  N   TRP     8      34.840  31.990  30.340  1.00  0.00    -0.228 NA
ATOM     30  CA  TRP     8      34.790  30.660  29.670  1.00  0.00     0.191 C 
ATOM     31  C   TRP     8      33.510  30.320  28.880  1.00  0.00     0.275 C 
ATOM     32  O   TRP     8      33.550  30.200  27.660  1.00  0.00    -0.268 OA
ATOM     33  N   TRP     9      32.370  30.270  29.560  1.00  0.00    -0.228 NA
ATOM     34  CA  TRP     9      31.070  29.920  28.920  1.00  0.00     0.189 C 
ATOM     35  C   TRP     9      30.550  30.960  27.900  1.00  0.00     0.257 C 
ATOM     36  O   TRP     9      30.310  30.530  26.770  1.00  0.00    -0.270 OA
ATOM     37  N   PRO    10      30.480  32.270  28.200  1.00  0.00    -0.312 N 
ATOM     38  CA  PRO    10      30.120  33.320  27.220  1.00  0.00     0.165 C 
ATOM     39  CB  PRO    10      29.990  34.610  28.030  1.00  0.00     0.034 C 
ATOM     40  CG  PRO    10      29.540  34.110  29.390  1.00  0.00     0.027 C 
ATOM     41  CD  PRO    10      30.380  32.840  29.560  1.00  0.00     0.105 C 
ATOM     42  C   PRO    10      31.100  33.530  26.060  1.00  0.00     0.272 C 
ATOM     43  O   PRO    10      30.780  34.290  25.160  1.00  0.00    -0.269 OA
ATOM     44  N   TRP    11      32.370  33.180  26.260  1.00  0.00    -0.228 NA
ATOM     45  CA  TRP    11      33.360  33.180  25.160  1.00  0.00     0.191 C 
ATOM     46  C   TRP    11      33.340  31.940  24.240  1.00  0.00     0.275 C 
ATOM     47  O   TRP    11      33.880  31.960  23.140  1.00  0.00    -0.268 OA
ATOM     48  N   ARG    12      32.840  30.820  24.770  1.00  0.00    -0.229 NA
ATOM     49  CA  ARG    12      32.690  29.550  24.030  1.00  0.00     0.186 C 
ENDROOT
BRANCH  30  50
ATOM     50  CB  TRP     8      35.090  29.600  30.750  1.00  0.00     0.062 C 
BRANCH  50  51
ATOM     51  CG  TRP     8      35.240  28.140  30.310  1.00  0.00     0.001 A 
ATOM     52  CD1 TRP     8      36.390  27.560  29.990  1.00  0.00     0.095 A 
ATOM     53  NE1 TRP     8      36.200  26.260  29.750  1.00  0.00    -0.244 NA
ATOM     54  CE2 TRP     8      34.900  25.980  29.900  1.00  0.00     0.081 A 
ATOM     55  CZ2 TRP     8      34.180  24.800  29.760  1.00  0.00     0.019 A 
ATOM     56  CD2 TRP     8      34.270  27.150  30.280  1.00  0.00     0.015 A 
ATOM     57  CH2 TRP     8      32.810  24.790  30.000  1.00  0.00     0.002 A 
ATOM     58  CZ3 TRP     8      32.170  25.960  30.400  1.00  0.00     0.000 A 
ATOM     59  CE3 TRP     8      32.900  27.130  30.550  1.00  0.00     0.001 A 
ENDBRANCH  50  51
ENDBRANCH  30  50
BRANCH  34  60
ATOM     60  CB  TRP     9      30.040  29.480  29.980  1.00  0.00     0.062 C 
BRANCH  60  61
ATOM     61  CG  TRP     9      28.720  28.980  29.390  1.00  0.00     0.001 A 
ATOM     62  CD2 TRP     9      27.610  29.770  29.090  1.00  0.00     0.015 A 
ATOM     63  CE2 TRP     9      26.660  28.920  28.550  1.00  0.00     0.081 A 
ATOM     64  CE3 TRP     9      27.320  31.110  29.290  1.00  0.00     0.001 A 
ATOM     65  CZ2 TRP     9      25.410  29.420  28.190  1.00  0.00     0.019 A 
ATOM     66  NE1 TRP     9      27.170  27.700  28.540  1.00  0.00    -0.244 NA
ATOM     67  CH2 TRP     9      25.130  30.770  28.370  1.00  0.00     0.002 A 
ATOM     68  CZ3 TRP     9      26.090  31.620  28.910  1.00  0.00     0.000 A 
ATOM     69  CD1 TRP     9      28.410  27.730  29.060  1.00  0.00     0.095 A 
ENDBRANCH  60  61
ENDBRANCH  34  60
BRANCH  19  70
ATOM     70  CB  TRP     6      32.350  32.560  33.980  1.00  0.00     0.062 C 
BRANCH  70  71
ATOM     71  CG  TRP     6      33.720  32.000  34.390  1.00  0.00     0.001 A 
ATOM     72  CD2 TRP     6      34.130  30.690  34.200  1.00  0.00     0.015 A 
ATOM     73  CE3 TRP     6      33.460  29.540  33.810  1.00  0.00     0.001 A 
ATOM     74  CE2 TRP     6      35.470  30.630  34.570  1.00  0.00     0.081 A 
ATOM     75  CZ3 TRP     6      34.150  28.330  33.750  1.00  0.00     0.000 A 
ATOM     76  CH2 TRP     6      35.490  28.270  34.100  1.00  0.00     0.002 A 
ATOM     77  CZ2 TRP     6      36.150  29.420  34.510  1.00  0.00     0.019 A 
ATOM     78  NE1 TRP     6      35.820  31.850  34.990  1.00  0.00    -0.244 NA
ATOM     79  CD1 TRP     6      34.760  32.650  34.920  1.00  0.00     0.095 A 
ENDBRANCH  70  71
ENDBRANCH  19  70
BRANCH  45  80
ATOM     80  CB  TRP    11      34.770  33.410  25.720  1.00  0.00     0.062 C 
BRANCH  80  81
ATOM     81  CG  TRP    11      34.990  34.770  26.410  1.00  0.00     0.001 A 
ATOM     82  CD1 TRP    11      34.170  35.830  26.460  1.00  0.00     0.095 A 
ATOM     83  NE1 TRP    11      34.750  36.820  27.140  1.00  0.00    -0.244 NA
ATOM     84  CE2 TRP    11      35.950  36.430  27.550  1.00  0.00     0.081 A 
ATOM     85  CD2 TRP    11      36.140  35.130  27.100  1.00  0.00     0.015 A 
ATOM     86  CZ2 TRP    11      36.960  37.070  28.260  1.00  0.00     0.019 A 
ATOM     87  CE3 TRP    11      37.330  34.470  27.360  1.00  0.00     0.001 A 
ATOM     88  CZ3 TRP    11      38.340  35.100  28.070  1.00  0.00     0.000 A 
ATOM     89  CH2 TRP    11      38.150  36.410  28.520  1.00  0.00     0.002 A 
ENDBRANCH  80  81
ENDBRANCH  45  80
BRANCH  15  90
ATOM     90  CB  LYS     5      28.040  35.290  36.070  1.00  0.00     0.034 C 
BRANCH  90  91
ATOM     91  CG  LYS     5      26.560  35.690  35.990  1.00  0.00     0.005 C 
BRANCH  91  92
ATOM     92  CD  LYS     5      26.060  36.130  37.370  1.00  0.00     0.041 C 
BRANCH  92  93
ATOM     93  CE  LYS     5      24.590  36.530  37.330  1.00  0.00     0.338 C 
ATOM     94  NZ  LYS     5      24.110  36.930  38.660  1.00  0.00     0.618 N 
ENDBRANCH  92  93
ENDBRANCH  91  92
ENDBRANCH  90  91
ENDBRANCH  15  90
BRANCH  49  95
ATOM     95  CB  ARG    12      33.230  28.470  24.970  1.00  0.00     0.036 C 
BRANCH  95  96
ATOM     96  CG  ARG    12      33.590  27.140  24.290  1.00  0.00     0.029 C 
BRANCH  96  97
ATOM     97  CD  ARG    12      33.570  25.980  25.300  1.00  0.00     0.145 C 
BRANCH  97  98
ATOM     98  NE  ARG    12      32.270  25.870  25.990  1.00  0.00    -0.083 NA
ATOM     99  CZ  ARG    12      31.090  25.490  25.480  1.00  0.00     0.782 C 
ATOM    100  NH2 ARG    12      30.030  25.370  26.290  1.00  0.00     0.063 N 
ATOM    101  NH1 ARG    12      30.920  25.220  24.180  1.00  0.00     0.063 N 
ENDBRANCH  97  98
ENDBRANCH  96  97
ENDBRANCH  95  96
ENDBRANCH  49  95
BRANCH  49 102
ATOM    102  C   ARG    12      31.240  29.230  23.560  1.00  0.00     0.274 C 
ATOM    103  N   ARG    13      30.310  30.170  23.720  1.00  0.00    -0.227 NA
ATOM    104  O   ARG    12      30.960  28.100  23.150  1.00  0.00    -0.268 OA
BRANCH 103 105
ATOM    105  CA  ARG    13      28.910  30.060  23.290  1.00  0.00     0.193 C 
BRANCH 105 106
ATOM    106  CB  ARG    13      28.030  29.540  24.440  1.00  0.00     0.038 C 
BRANCH 106 107
ATOM    107  CG  ARG    13      26.550  29.470  24.040  1.00  0.00     0.030 C 
BRANCH 107 108
ATOM    108  CD  ARG    13      25.600  30.320  24.890  1.00  0.00     0.145 C 
BRANCH 108 109
ATOM    109  NE  ARG    13      26.130  31.660  25.240  1.00  0.00    -0.083 NA
ATOM    110  CZ  ARG    13      25.750  32.830  24.700  1.00  0.00     0.782 C 
ATOM    111  NH1 ARG    13      25.010  32.890  23.600  1.00  0.00     0.063 N 
ATOM    112  NH2 ARG    13      25.980  33.960  25.380  1.00  0.00     0.063 N 
ENDBRANCH 108 109
ENDBRANCH 107 108
ENDBRANCH 106 107
ENDBRANCH 105 106
BRANCH 105 113
ATOM    113  C   ARG    13      28.420  31.460  22.870  1.00  0.00     0.209 C 
ATOM    114  O2  ARG    13      27.570  31.520  21.950  1.00  0.00    -0.646 OA
ATOM    115  O1  ARG    13      28.650  32.380  23.680  1.00  0.00    -0.646 OA
ENDBRANCH 105 113
ENDBRANCH 103 105
ENDBRANCH  49 102
BRANCH  11 116
ATOM    116  CB  TRP     4      25.430  31.560  32.410  1.00  0.00     0.062 C 
BRANCH 116 117
ATOM    117  CG  TRP     4      25.240  30.080  32.020  1.00  0.00     0.001 A 
ATOM    118  CD1 TRP     4      26.130  29.080  32.140  1.00  0.00     0.095 A 
ATOM    119  NE1 TRP     4      25.580  27.940  31.730  1.00  0.00    -0.244 NA
ATOM    120  CE2 TRP     4      24.350  28.170  31.290  1.00  0.00     0.081 A 
ATOM    121  CD2 TRP     4      24.090  29.530  31.470  1.00  0.00     0.015 A 
ATOM    122  CZ2 TRP     4      23.460  27.390  30.570  1.00  0.00     0.019 A 
ATOM    123  CE3 TRP     4      22.940  30.090  30.950  1.00  0.00     0.001 A 
ATOM    124  CZ3 TRP     4      22.050  29.310  30.220  1.00  0.00     0.000 A 
ATOM    125  CH2 TRP     4      22.310  27.960  30.030  1.00  0.00     0.002 A 
ENDBRANCH 116 117
ENDBRANCH  11 116
BRANCH   1 126
ATOM    126  CA  LEU     2      28.050  26.000  36.080  1.00  0.00     0.184 C 
BRANCH 126 127
ATOM    127  CB  LEU     2      27.300  25.180  37.150  1.00  0.00     0.034 C 
BRANCH 127 128
ATOM    128  CG  LEU     2      27.640  23.690  37.130  1.00  0.00     0.002 C 
ATOM    129  CD2 LEU     2      27.210  23.020  35.820  1.00  0.00     0.000 C 
ATOM    130  CD1 LEU     2      26.960  23.000  38.320  1.00  0.00     0.000 C 
ENDBRANCH 127 128
ENDBRANCH 126 127
BRANCH 126 131
ATOM    131  N   LEU     2      29.520  25.930  36.320  1.00  0.00    -0.229 NA
ATOM    132  C   ILE     1      30.400  26.490  35.480  1.00  0.00     0.289 C 
ATOM    133  O   ILE     1      30.060  27.100  34.470  1.00  0.00    -0.268 OA
BRANCH 132 134
ATOM    134  CA  ILE     1      31.890  26.550  35.880  1.00  0.00     0.381 C 
ATOM    135  N   ILE     1      32.150  27.140  37.200  1.00  0.00     0.626 N 
BRANCH 134 136
ATOM    136  CB  ILE     1      32.680  25.240  35.670  1.00  0.00     0.046 C 
ATOM    137  CG2 ILE     1      32.220  24.120  36.600  1.00  0.00     0.003 C 
BRANCH 136 138
ATOM    138  CG1 ILE     1      32.630  24.820  34.200  1.00  0.00     0.003 C 
ATOM    139  CD  ILE     1      33.750  23.850  33.830  1.00  0.00     0.000 C 
ENDBRANCH 136 138
ENDBRANCH 134 136
ENDBRANCH 132 134
ENDBRANCH 126 131
ENDBRANCH   1 126
TORSDOF 48
