REMARK  19 active torsions:
REMARK  status: ('A' for Active; 'I' for Inactive)
REMARK    1  A    between atoms: N_1  and  CA_2 
REMARK    2  A    between atoms: CA_2  and  C_3 
REMARK    3  A    between atoms: CA_2  and  CB_6 
REMARK       I    between atoms: C_3  and  N_11 
REMARK    4  A    between atoms: CB_6  and  CG_7 
REMARK    5  A    between atoms: N_11  and  CA_12 
REMARK    6  A    between atoms: CA_12  and  C_13 
REMARK    7  A    between atoms: CA_12  and  CB_16 
REMARK       I    between atoms: C_13  and  N_20 
REMARK    8  A    between atoms: CB_16  and  CG_17 
REMARK    9  A    between atoms: N_20  and  CA_21 
REMARK   10  A    between atoms: CA_21  and  C_22 
REMARK   11  A    between atoms: CA_21  and  CB_25 
REMARK       I    between atoms: C_22  and  N_29 
REMARK   12  A    between atoms: CB_25  and  CG_26 
REMARK   13  A    between atoms: N_29  and  CA_30 
REMARK   14  A    between atoms: CA_30  and  C_31 
REMARK   15  A    between atoms: CA_30  and  CB_33 
REMARK   16  A    between atoms: C_31  and  OXT_40 
REMARK   17  A    between atoms: CB_33  and  CG_34 
REMARK   18  A    between atoms: CG_34  and  CD_35 
REMARK   19  A    between atoms: CD_35  and  OE1_37 
ROOT
ATOM      1  C   LEU A   2       5.071   0.000   3.239  1.00  0.00     0.241 C 
ATOM      2  O   LEU A   2       5.744  -0.000   2.210  1.00  0.00    -0.271 OA
ATOM      3  N   LEU A   3       5.741   0.000   4.400  1.00  0.00    -0.346 N 
ATOM      4  H   LEU A   3       5.274   0.469   5.170  1.00  0.00     0.163 HD
ENDROOT
BRANCH   3   5
ATOM      5  CA  LEU A   3       7.204   0.000   4.400  1.00  0.00     0.177 C 
BRANCH   5   6
ATOM      6  C   LEU A   3       7.603   0.000   5.881  1.00  0.00     0.241 C 
ATOM      7  O   LEU A   3       6.784   0.001   6.798  1.00  0.00    -0.271 OA
ATOM      8  N   GLU A   4       8.898   0.000   6.226  1.00  0.00    -0.345 N 
ATOM      9  H   GLU A   4       9.655  -0.025   5.547  1.00  0.00     0.163 HD
BRANCH   8  10
ATOM     10  CA  GLU A   4       9.278   0.001   7.637  1.00  0.00     0.182 C 
BRANCH  10  11
ATOM     11  C   GLU A   4      10.822   0.000   7.671  1.00  0.00     0.163 C 
ATOM     12  O   GLU A   4      11.509  -0.000   6.648  1.00  0.00    -0.648 OA
BRANCH  11  13
ATOM     13  OXT GLU A   4      11.417   0.001   8.884  1.00  0.00    -0.775 OA
ATOM     14  HO  GLU A   4      10.824   0.001   9.767  1.00  0.00     0.167 HD
ENDBRANCH  11  13
ENDBRANCH  10  11
BRANCH  10  15
ATOM     15  CB  GLU A   4       8.668  -1.196   8.381  1.00  0.00     0.046 C 
BRANCH  15  16
ATOM     16  CG  GLU A   4       8.117  -0.783   9.745  1.00  0.00     0.112 C 
BRANCH  16  17
ATOM     17  CD  GLU A   4       7.762  -1.997  10.552  1.00  0.00     0.139 C 
ATOM     18  OE2 GLU A   4       8.546  -2.858  10.918  1.00  0.00    -0.650 OA
BRANCH  17  19
ATOM     19  OE1 GLU A   4       6.456  -2.069  10.858  1.00  0.00    -0.776 OA
ATOM     20  HE1 GLU A   4       6.361  -2.903  11.363  1.00  0.00     0.167 HD
ENDBRANCH  17  19
ENDBRANCH  16  17
ENDBRANCH  15  16
ENDBRANCH  10  15
ENDBRANCH   8  10
ENDBRANCH   5   6
BRANCH   5  21
ATOM     21  CB  LEU A   3       7.725   1.234   3.646  1.00  0.00     0.038 C 
BRANCH  21  22
ATOM     22  CG  LEU A   3       9.226   1.296   3.295  1.00  0.00    -0.020 C 
ATOM     23  CD1 LEU A   3       9.756   0.005   2.674  1.00  0.00     0.009 C 
ATOM     24  CD2 LEU A   3      10.102   1.738   4.465  1.00  0.00     0.009 C 
ENDBRANCH  21  22
ENDBRANCH   5  21
ENDBRANCH   3   5
BRANCH   1  25
ATOM     25  CA  LEU A   2       3.537   0.000   3.239  1.00  0.00     0.177 C 
BRANCH  25  26
ATOM     26  N   LEU A   2       3.157  -0.000   1.826  1.00  0.00    -0.346 N 
ATOM     27  C   LEU A   1       1.862   0.000   1.481  1.00  0.00     0.240 C 
ATOM     28  O   LEU A   1       1.043   0.000   2.399  1.00  0.00    -0.271 OA
ATOM     29  H   LEU A   2       3.779  -0.469   1.175  1.00  0.00     0.163 HD
BRANCH  27  30
ATOM     30  CA  LEU A   1       1.463   0.000   0.000  1.00  0.00     0.167 C 
BRANCH  30  31
ATOM     31  N   LEU A   1       0.000   0.000   0.000  1.00  0.00    -0.418 N 
ATOM     32  HN  LEU A   1      -0.508   0.077  -0.877  1.00  0.00     0.150 HD
ATOM     33  H   LEU A   1      -0.467   0.469   0.771  1.00  0.00     0.150 HD
ENDBRANCH  30  31
BRANCH  30  34
ATOM     34  CB  LEU A   1       1.983   1.234  -0.754  1.00  0.00     0.038 C 
BRANCH  34  35
ATOM     35  CG  LEU A   1       3.484   1.296  -1.105  1.00  0.00    -0.020 C 
ATOM     36  CD1 LEU A   1       4.014   0.006  -1.726  1.00  0.00     0.009 C 
ATOM     37  CD2 LEU A   1       4.361   1.738   0.066  1.00  0.00     0.009 C 
ENDBRANCH  34  35
ENDBRANCH  30  34
ENDBRANCH  27  30
ENDBRANCH  25  26
BRANCH  25  38
ATOM     38  CB  LEU A   2       2.945  -1.234   3.938  1.00  0.00     0.038 C 
BRANCH  38  39
ATOM     39  CG  LEU A   2       2.996  -1.296   5.479  1.00  0.00    -0.020 C 
ATOM     40  CD1 LEU A   2       2.534  -0.005   6.151  1.00  0.00     0.009 C 
ATOM     41  CD2 LEU A   2       4.354  -1.738   6.020  1.00  0.00     0.009 C 
ENDBRANCH  38  39
ENDBRANCH  25  38
ENDBRANCH   1  25
TORSDOF 19
