REMARK  13 active torsions:
REMARK  status: ('A' for Active; 'I' for Inactive)
REMARK    1  A    between atoms: CA_2  and  C_9 
REMARK    2  A    between atoms: CA_2  and  CB_3 
REMARK    3  A    between atoms: CB_3  and  CG_4 
REMARK       I    between atoms: C_9  and  N_11 
REMARK    4  A    between atoms: N_11  and  CA_12 
REMARK    5  A    between atoms: CA_12  and  C_15 
REMARK    6  A    between atoms: CA_12  and  CB_13 
REMARK       I    between atoms: C_15  and  N_17 
REMARK    7  A    between atoms: CA_18  and  C_22 
REMARK       I    between atoms: C_22  and  N_24 
REMARK    8  A    between atoms: N_24  and  CA_25 
REMARK    9  A    between atoms: CA_25  and  C_26 
REMARK       I    between atoms: C_26  and  N_28 
REMARK   10  A    between atoms: N_28  and  CA_29 
REMARK   11  A    between atoms: CA_29  and  C_30 
REMARK       I    between atoms: C_30  and  N_32 
REMARK   12  A    between atoms: N_32  and  CA_33 
REMARK   13  A    between atoms: CA_33  and  C_35 
ROOT
ATOM      1  C   SER     2      27.110  24.030  27.030  1.00  0.00     0.259 C 
ATOM      2  O   SER     2      27.530  24.970  26.340  1.00  0.00    -0.270 OA
ATOM      3  N   PRO     3      27.840  23.460  28.000  1.00  0.00    -0.312 N 
ATOM      4  CA  PRO     3      29.230  23.860  28.350  1.00  0.00     0.165 C 
ATOM      5  CB  PRO     3      29.720  22.760  29.280  1.00  0.00     0.034 C 
ATOM      6  CG  PRO     3      28.450  22.360  30.030  1.00  0.00     0.027 C 
ATOM      7  CD  PRO     3      27.370  22.430  28.950  1.00  0.00     0.105 C 
ENDROOT
BRANCH   1   8
ATOM      8  CA  SER     2      25.700  23.500  26.740  1.00  0.00     0.217 C 
BRANCH   8   9
ATOM      9  CB  SER     2      25.810  22.380  25.680  1.00  0.00     0.216 C 
ATOM     10  OG  SER     2      26.060  22.950  24.390  1.00  0.00    -0.218 OA
ENDBRANCH   8   9
BRANCH   8  11
ATOM     11  N   SER     2      24.820  24.570  26.210  1.00  0.00    -0.226 NA
ATOM     12  C   HIS     1      23.670  24.960  26.750  1.00  0.00     0.289 C 
ATOM     13  O   HIS     1      23.040  24.330  27.600  1.00  0.00    -0.268 OA
BRANCH  12  14
ATOM     14  CA  HIS     1      22.930  26.060  25.980  1.00  0.00     0.387 C 
ATOM     15  N   HIS     1      21.480  25.920  26.160  1.00  0.00     0.627 N 
BRANCH  14  16
ATOM     16  CB  HIS     1      23.320  27.450  26.500  1.00  0.00     0.097 C 
BRANCH  16  17
ATOM     17  CG  HIS     1      22.660  28.570  25.690  1.00  0.00     0.083 A 
ATOM     18  CD2 HIS     1      22.930  29.860  25.810  1.00  0.00     0.116 A 
ATOM     19  NE2 HIS     1      22.510  30.480  24.710  1.00  0.00    -0.221 NA
ATOM     20  CE1 HIS     1      21.950  29.570  23.920  1.00  0.00     0.199 A 
ATOM     21  ND1 HIS     1      22.010  28.390  24.540  1.00  0.00    -0.227 NA
ENDBRANCH  16  17
ENDBRANCH  14  16
ENDBRANCH  12  14
ENDBRANCH   8  11
ENDBRANCH   1   8
BRANCH   4  22
ATOM     22  C   PRO     3      30.120  23.950  27.110  1.00  0.00     0.272 C 
ATOM     23  O   PRO     3      30.060  23.070  26.250  1.00  0.00    -0.269 OA
ATOM     24  N   GLY     4      30.670  25.150  26.910  1.00  0.00    -0.226 NA
BRANCH  24  25
ATOM     25  CA  GLY     4      31.450  25.470  25.690  1.00  0.00     0.218 C 
BRANCH  25  26
ATOM     26  C   GLY     4      30.770  26.500  24.770  1.00  0.00     0.277 C 
ATOM     27  N   GLY     5      29.430  26.490  24.800  1.00  0.00    -0.226 NA
ATOM     28  O   GLY     4      31.420  27.100  23.920  1.00  0.00    -0.268 OA
BRANCH  27  29
ATOM     29  CA  GLY     5      28.560  27.480  24.140  1.00  0.00     0.218 C 
BRANCH  29  30
ATOM     30  C   GLY     5      27.730  28.350  25.120  1.00  0.00     0.277 C 
ATOM     31  O   GLY     5      26.900  29.160  24.690  1.00  0.00    -0.268 OA
ATOM     32  N   ALA     6      27.760  27.940  26.380  1.00  0.00    -0.227 NA
BRANCH  32  33
ATOM     33  CA  ALA     6      27.220  28.630  27.560  1.00  0.00     0.193 C 
ATOM     34  CB  ALA     6      26.260  27.710  28.320  1.00  0.00     0.038 C 
BRANCH  33  35
ATOM     35  C   ALA     6      28.420  28.850  28.480  1.00  0.00     0.209 C 
ATOM     36  O1  ALA     6      29.290  27.940  28.480  1.00  0.00    -0.646 OA
ATOM     37  O2  ALA     6      28.390  29.860  29.210  1.00  0.00    -0.646 OA
ENDBRANCH  33  35
ENDBRANCH  32  33
ENDBRANCH  29  30
ENDBRANCH  27  29
ENDBRANCH  25  26
ENDBRANCH  24  25
ENDBRANCH   4  22
TORSDOF 13
