REMARK  27 active torsions:
REMARK  status: ('A' for Active; 'I' for Inactive)
REMARK    1  A    between atoms: CA_2  and  CB_3 
REMARK    2  A    between atoms: CA_2  and  C_8 
REMARK    3  A    between atoms: CB_3  and  CG_4 
REMARK    4  A    between atoms: CG_4  and  CD_5 
REMARK    5  A    between atoms: CD_5  and  CE_6 
REMARK       I    between atoms: C_8  and  N_10 
REMARK    6  A    between atoms: N_10  and  CA_11 
REMARK    7  A    between atoms: CA_11  and  C_20 
REMARK    8  A    between atoms: CA_11  and  CB_12 
REMARK    9  A    between atoms: CB_12  and  CG_13 
REMARK       I    between atoms: C_20  and  N_22 
REMARK   10  A    between atoms: N_22  and  CA_23 
REMARK   11  A    between atoms: CA_23  and  C_24 
REMARK       I    between atoms: C_24  and  N_26 
REMARK   12  A    between atoms: N_26  and  CA_27 
REMARK   13  A    between atoms: CA_27  and  C_32 
REMARK   14  A    between atoms: CA_27  and  CB_28 
REMARK   15  A    between atoms: CB_28  and  CG_29 
REMARK       I    between atoms: C_32  and  N_34 
REMARK   16  A    between atoms: N_34  and  CA_35 
REMARK   17  A    between atoms: CA_35  and  C_39 
REMARK   18  A    between atoms: CA_35  and  CB_36 
REMARK       I    between atoms: C_39  and  N_41 
REMARK   19  A    between atoms: CA_42  and  C_46 
REMARK       I    between atoms: C_46  and  N_48 
REMARK   20  A    between atoms: N_48  and  CA_49 
REMARK   21  A    between atoms: CA_49  and  C_54 
REMARK   22  A    between atoms: CA_49  and  CB_50 
REMARK   23  A    between atoms: CB_50  and  CG_51 
REMARK       I    between atoms: C_54  and  N_56 
REMARK   24  A    between atoms: N_56  and  CA_57 
REMARK   25  A    between atoms: CA_57  and  CB_58 
REMARK   26  A    between atoms: CA_57  and  C_66 
REMARK   27  A    between atoms: CB_58  and  CG_59 
ROOT
ATOM      1  C   ASP     4      28.680  32.760  25.780  1.00  0.00     0.275 C 
ATOM      2  O   ASP     4      28.280  32.720  24.620  1.00  0.00    -0.268 OA
ATOM      3  N   VAL     5      29.580  31.900  26.250  1.00  0.00    -0.229 NA
ENDROOT
BRANCH   3   4
ATOM      4  CA  VAL     5      30.430  31.000  25.440  1.00  0.00     0.184 C 
BRANCH   4   5
ATOM      5  C   VAL     5      29.890  29.550  25.570  1.00  0.00     0.256 C 
ATOM      6  O   VAL     5      29.170  29.260  26.520  1.00  0.00    -0.270 OA
ATOM      7  N   PRO     6      30.110  28.670  24.570  1.00  0.00    -0.312 N 
ATOM      8  CA  PRO     6      29.850  27.220  24.700  1.00  0.00     0.165 C 
ATOM      9  CD  PRO     6      30.220  29.050  23.140  1.00  0.00     0.105 C 
ATOM     10  CB  PRO     6      30.130  26.660  23.300  1.00  0.00     0.034 C 
ATOM     11  CG  PRO     6      29.730  27.810  22.390  1.00  0.00     0.027 C 
BRANCH   8  12
ATOM     12  C   PRO     6      30.730  26.530  25.770  1.00  0.00     0.272 C 
ATOM     13  N   LEU     7      30.430  26.900  27.010  1.00  0.00    -0.229 NA
ATOM     14  O   PRO     6      31.710  25.860  25.480  1.00  0.00    -0.269 OA
BRANCH  13  15
ATOM     15  CA  LEU     7      30.980  26.340  28.260  1.00  0.00     0.186 C 
BRANCH  15  16
ATOM     16  C   LEU     7      29.840  26.330  29.280  1.00  0.00     0.274 C 
ATOM     17  O   LEU     7      29.110  27.320  29.380  1.00  0.00    -0.268 OA
ATOM     18  N   TYR     8      29.910  25.370  30.180  1.00  0.00    -0.227 NA
BRANCH  18  19
ATOM     19  CA  TYR     8      28.950  25.270  31.290  1.00  0.00     0.197 C 
BRANCH  19  20
ATOM     20  CB  TYR     8      28.360  23.850  31.300  1.00  0.00     0.062 C 
BRANCH  20  21
ATOM     21  CG  TYR     8      27.620  23.520  29.990  1.00  0.00    -0.019 A 
ATOM     22  CD2 TYR     8      26.330  23.980  29.780  1.00  0.00    -0.002 A 
ATOM     23  CE2 TYR     8      25.740  23.900  28.520  1.00  0.00     0.027 A 
ATOM     24  CZ  TYR     8      26.450  23.350  27.460  1.00  0.00     0.131 A 
ATOM     25  OH  TYR     8      25.930  23.330  26.210  1.00  0.00    -0.190 OA
ATOM     26  CE1 TYR     8      27.730  22.860  27.670  1.00  0.00     0.027 A 
ATOM     27  CD1 TYR     8      28.310  22.930  28.930  1.00  0.00    -0.002 A 
ENDBRANCH  20  21
ENDBRANCH  19  20
BRANCH  19  28
ATOM     28  C   TYR     8      29.780  25.660  32.530  1.00  0.00     0.209 C 
ATOM     29  O1  TYR     8      29.900  26.880  32.750  1.00  0.00    -0.646 OA
ATOM     30  O2  TYR     8      30.610  24.810  32.910  1.00  0.00    -0.646 OA
ENDBRANCH  19  28
ENDBRANCH  18  19
ENDBRANCH  15  16
BRANCH  15  31
ATOM     31  CB  LEU     7      32.070  27.240  28.860  1.00  0.00     0.034 C 
BRANCH  31  32
ATOM     32  CG  LEU     7      33.460  27.180  28.220  1.00  0.00     0.002 C 
ATOM     33  CD1 LEU     7      34.360  28.230  28.880  1.00  0.00     0.000 C 
ATOM     34  CD2 LEU     7      34.080  25.790  28.370  1.00  0.00     0.000 C 
ENDBRANCH  31  32
ENDBRANCH  15  31
ENDBRANCH  13  15
ENDBRANCH   8  12
ENDBRANCH   4   5
BRANCH   4  35
ATOM     35  CB  VAL     5      31.870  31.170  25.980  1.00  0.00     0.032 C 
ATOM     36  CG2 VAL     5      32.380  32.580  25.690  1.00  0.00     0.003 C 
ATOM     37  CG1 VAL     5      32.880  30.180  25.390  1.00  0.00     0.003 C 
ENDBRANCH   4  35
ENDBRANCH   3   4
BRANCH   1  38
ATOM     38  CA  ASP     4      27.870  33.470  26.890  1.00  0.00     0.197 C 
BRANCH  38  39
ATOM     39  CB  ASP     4      28.680  33.890  28.140  1.00  0.00     0.132 C 
BRANCH  39  40
ATOM     40  CG  ASP     4      30.150  34.300  27.990  1.00  0.00     0.188 C 
ATOM     41  OD1 ASP     4      30.510  34.990  27.020  1.00  0.00    -0.647 OA
ATOM     42  OD2 ASP     4      30.970  33.740  28.750  1.00  0.00    -0.647 OA
ENDBRANCH  39  40
ENDBRANCH  38  39
BRANCH  38  43
ATOM     43  N   ASP     4      26.820  32.530  27.360  1.00  0.00    -0.228 NA
ATOM     44  C   GLY     3      25.570  32.820  27.690  1.00  0.00     0.277 C 
ATOM     45  O   GLY     3      24.990  33.870  27.390  1.00  0.00    -0.268 OA
BRANCH  44  46
ATOM     46  CA  GLY     3      24.780  31.640  28.290  1.00  0.00     0.218 C 
BRANCH  46  47
ATOM     47  N   GLY     3      25.590  30.700  29.090  1.00  0.00    -0.226 NA
ATOM     48  C   TYR     2      26.250  31.030  30.200  1.00  0.00     0.275 C 
ATOM     49  O   TYR     2      26.150  32.110  30.780  1.00  0.00    -0.268 OA
BRANCH  48  50
ATOM     50  CA  TYR     2      27.150  29.920  30.770  1.00  0.00     0.191 C 
BRANCH  50  51
ATOM     51  N   TYR     2      28.450  30.460  31.220  1.00  0.00    -0.228 NA
ATOM     52  C   LYS     1      29.520  30.390  30.440  1.00  0.00     0.289 C 
ATOM     53  O   LYS     1      29.480  30.230  29.230  1.00  0.00    -0.268 OA
BRANCH  52  54
ATOM     54  CA  LYS     1      30.860  30.560  31.160  1.00  0.00     0.381 C 
ATOM     55  N   LYS     1      31.290  29.220  31.600  1.00  0.00     0.626 N 
BRANCH  54  56
ATOM     56  CB  LYS     1      31.880  31.140  30.160  1.00  0.00     0.049 C 
BRANCH  56  57
ATOM     57  CG  LYS     1      33.080  31.920  30.700  1.00  0.00     0.005 C 
BRANCH  57  58
ATOM     58  CD  LYS     1      33.780  32.500  29.460  1.00  0.00     0.041 C 
BRANCH  58  59
ATOM     59  CE  LYS     1      34.830  33.570  29.740  1.00  0.00     0.338 C 
ATOM     60  NZ  LYS     1      35.210  34.200  28.470  1.00  0.00     0.618 N 
ENDBRANCH  58  59
ENDBRANCH  57  58
ENDBRANCH  56  57
ENDBRANCH  54  56
ENDBRANCH  52  54
ENDBRANCH  50  51
BRANCH  50  61
ATOM     61  CB  TYR     2      26.510  29.220  31.980  1.00  0.00     0.060 C 
BRANCH  61  62
ATOM     62  CG  TYR     2      25.150  28.610  31.670  1.00  0.00    -0.020 A 
ATOM     63  CD1 TYR     2      25.050  27.370  31.070  1.00  0.00    -0.002 A 
ATOM     64  CE1 TYR     2      23.800  26.860  30.730  1.00  0.00     0.027 A 
ATOM     65  CZ  TYR     2      22.660  27.600  31.000  1.00  0.00     0.131 A 
ATOM     66  OH  TYR     2      21.450  27.110  30.640  1.00  0.00    -0.190 OA
ATOM     67  CE2 TYR     2      22.750  28.840  31.620  1.00  0.00     0.027 A 
ATOM     68  CD2 TYR     2      24.000  29.340  31.950  1.00  0.00    -0.002 A 
ENDBRANCH  61  62
ENDBRANCH  50  61
ENDBRANCH  48  50
ENDBRANCH  46  47
ENDBRANCH  44  46
ENDBRANCH  38  43
ENDBRANCH   1  38
TORSDOF 27
