REMARK  32 active torsions:
REMARK  status: ('A' for Active; 'I' for Inactive)
REMARK    1  A    between atoms: CA_2  and  CB_3 
REMARK    2  A    between atoms: CA_2  and  C_10 
REMARK    3  A    between atoms: CB_3  and  CG_4 
REMARK    4  A    between atoms: CG_4  and  CD_5 
REMARK    5  A    between atoms: CD_5  and  NE_6 
REMARK       I    between atoms: C_10  and  N_12 
REMARK    6  A    between atoms: N_12  and  CA_13 
REMARK    7  A    between atoms: CA_13  and  C_21 
REMARK    8  A    between atoms: CA_13  and  CB_14 
REMARK    9  A    between atoms: CB_14  and  CG_15 
REMARK       I    between atoms: C_21  and  N_23 
REMARK   10  A    between atoms: CA_24  and  C_28 
REMARK       I    between atoms: C_28  and  N_30 
REMARK   11  A    between atoms: N_30  and  CA_31 
REMARK       I    between atoms: CA_31  and  C_42 
REMARK   12  A    between atoms: CA_31  and  CB_32 
REMARK   13  A    between atoms: CB_32  and  CG_33 
REMARK       I    between atoms: C_42  and  N_44 
REMARK       I    between atoms: N_44  and  CA_45 
REMARK       I    between atoms: CA_45  and  C_56 
REMARK   14  A    between atoms: CA_45  and  CB_46 
REMARK   15  A    between atoms: CB_46  and  CG_47 
REMARK       I    between atoms: C_56  and  N_58 
REMARK       I    between atoms: N_58  and  CA_59 
REMARK       I    between atoms: CA_59  and  C_70 
REMARK   16  A    between atoms: CA_59  and  CB_60 
REMARK   17  A    between atoms: CB_60  and  CG_61 
REMARK       I    between atoms: C_70  and  N_72 
REMARK   18  A    between atoms: CA_73  and  C_77 
REMARK       I    between atoms: C_77  and  N_79 
REMARK   19  A    between atoms: N_79  and  CA_80 
REMARK   20  A    between atoms: CA_80  and  C_88 
REMARK   21  A    between atoms: CA_80  and  CB_81 
REMARK   22  A    between atoms: CB_81  and  CG_82 
REMARK       I    between atoms: C_88  and  N_90 
REMARK   23  A    between atoms: N_90  and  CA_91 
REMARK   24  A    between atoms: CA_91  and  C_96 
REMARK   25  A    between atoms: CA_91  and  CB_92 
REMARK   26  A    between atoms: CB_92  and  CG_93 
REMARK       I    between atoms: C_96  and  N_98 
REMARK   27  A    between atoms: N_98  and  CA_99 
REMARK   28  A    between atoms: CA_99  and  CB_100 
REMARK   29  A    between atoms: CA_99  and  C_107 
REMARK   30  A    between atoms: CB_100  and  CG_101 
REMARK   31  A    between atoms: CG_101  and  CD_102 
REMARK   32  A    between atoms: CD_102  and  NE_103 
ROOT
ATOM      1  CA  TRP     4      33.580  28.770  32.060  1.00  0.00     0.191 C 
ATOM      2  C   TRP     4      32.080  29.130  31.940  1.00  0.00     0.275 C 
ATOM      3  O   TRP     4      31.260  28.300  31.570  1.00  0.00    -0.268 OA
ATOM      4  N   TRP     5      31.830  30.440  31.930  1.00  0.00    -0.228 NA
ATOM      5  CA  TRP     5      30.540  31.080  31.560  1.00  0.00     0.191 C 
ATOM      6  C   TRP     5      29.880  30.700  30.220  1.00  0.00     0.275 C 
ATOM      7  O   TRP     5      28.770  31.160  29.950  1.00  0.00    -0.268 OA
ATOM      8  N   TRP     6      30.690  30.270  29.250  1.00  0.00    -0.228 NA
ATOM      9  CA  TRP     6      30.180  29.660  28.010  1.00  0.00     0.189 C 
ATOM     10  C   TRP     6      29.840  28.160  28.140  1.00  0.00     0.257 C 
ATOM     11  O   TRP     6      28.670  27.860  27.970  1.00  0.00    -0.270 OA
ATOM     12  N   PRO     7      30.740  27.280  28.650  1.00  0.00    -0.312 N 
ATOM     13  CA  PRO     7      30.380  25.900  29.040  1.00  0.00     0.165 C 
ATOM     14  CB  PRO     7      31.660  25.320  29.630  1.00  0.00     0.034 C 
ATOM     15  CG  PRO     7      32.730  25.960  28.760  1.00  0.00     0.027 C 
ATOM     16  CD  PRO     7      32.210  27.390  28.560  1.00  0.00     0.105 C 
ENDROOT
BRANCH   5  17
ATOM     17  CB  TRP     5      30.700  32.600  31.600  1.00  0.00     0.062 C 
BRANCH  17  18
ATOM     18  CG  TRP     5      30.960  33.130  33.010  1.00  0.00     0.001 A 
ATOM     19  CD2 TRP     5      30.000  33.300  34.000  1.00  0.00     0.015 A 
ATOM     20  CE3 TRP     5      28.700  32.830  34.160  1.00  0.00     0.001 A 
ATOM     21  CE2 TRP     5      30.640  33.960  35.040  1.00  0.00     0.081 A 
ATOM     22  CZ3 TRP     5      28.030  33.030  35.360  1.00  0.00     0.000 A 
ATOM     23  CH2 TRP     5      28.660  33.710  36.400  1.00  0.00     0.002 A 
ATOM     24  CZ2 TRP     5      29.960  34.180  36.240  1.00  0.00     0.019 A 
ATOM     25  NE1 TRP     5      31.900  34.160  34.680  1.00  0.00    -0.244 NA
ATOM     26  CD1 TRP     5      32.100  33.660  33.460  1.00  0.00     0.095 A 
ENDBRANCH  17  18
ENDBRANCH   5  17
BRANCH   9  27
ATOM     27  CB  TRP     6      31.030  30.070  26.790  1.00  0.00     0.062 C 
BRANCH  27  28
ATOM     28  CG  TRP     6      30.590  29.440  25.470  1.00  0.00     0.001 A 
ATOM     29  CD1 TRP     6      31.290  28.530  24.780  1.00  0.00     0.095 A 
ATOM     30  NE1 TRP     6      30.760  28.370  23.570  1.00  0.00    -0.244 NA
ATOM     31  CE2 TRP     6      29.680  29.150  23.460  1.00  0.00     0.081 A 
ATOM     32  CZ2 TRP     6      28.730  29.300  22.450  1.00  0.00     0.019 A 
ATOM     33  CD2 TRP     6      29.540  29.840  24.650  1.00  0.00     0.015 A 
ATOM     34  CH2 TRP     6      27.650  30.150  22.640  1.00  0.00     0.002 A 
ATOM     35  CZ3 TRP     6      27.510  30.840  23.840  1.00  0.00     0.000 A 
ATOM     36  CE3 TRP     6      28.440  30.680  24.850  1.00  0.00     0.001 A 
ENDBRANCH  27  28
ENDBRANCH   9  27
BRANCH   1  37
ATOM     37  CB  TRP     4      34.190  29.350  33.340  1.00  0.00     0.062 C 
BRANCH  37  38
ATOM     38  CG  TRP     4      33.610  28.670  34.580  1.00  0.00     0.001 A 
ATOM     39  CD2 TRP     4      32.570  29.130  35.380  1.00  0.00     0.015 A 
ATOM     40  CE2 TRP     4      32.250  28.090  36.240  1.00  0.00     0.081 A 
ATOM     41  CE3 TRP     4      31.860  30.320  35.440  1.00  0.00     0.001 A 
ATOM     42  CZ2 TRP     4      31.210  28.240  37.160  1.00  0.00     0.019 A 
ATOM     43  NE1 TRP     4      33.070  27.080  35.970  1.00  0.00    -0.244 NA
ATOM     44  CH2 TRP     4      30.490  29.430  37.210  1.00  0.00     0.002 A 
ATOM     45  CZ3 TRP     4      30.820  30.460  36.340  1.00  0.00     0.000 A 
ATOM     46  CD1 TRP     4      33.890  27.430  34.980  1.00  0.00     0.095 A 
ENDBRANCH  37  38
ENDBRANCH   1  37
BRANCH   1  47
ATOM     47  N   TRP     4      34.240  29.330  30.860  1.00  0.00    -0.228 NA
ATOM     48  C   PRO     3      35.310  28.870  30.210  1.00  0.00     0.272 C 
ATOM     49  O   PRO     3      35.930  27.870  30.550  1.00  0.00    -0.269 OA
BRANCH  48  50
ATOM     50  CA  PRO     3      35.600  29.620  28.890  1.00  0.00     0.165 C 
ATOM     51  CB  PRO     3      36.970  29.280  28.300  1.00  0.00     0.034 C 
ATOM     52  CG  PRO     3      37.830  30.470  28.700  1.00  0.00     0.027 C 
ATOM     53  CD  PRO     3      36.870  31.650  28.550  1.00  0.00     0.105 C 
ATOM     54  N   PRO     3      35.560  31.100  28.940  1.00  0.00    -0.312 N 
ATOM     55  C   PHE     2      34.440  31.830  29.160  1.00  0.00     0.257 C 
ATOM     56  O   PHE     2      33.320  31.330  29.270  1.00  0.00    -0.270 OA
BRANCH  55  57
ATOM     57  CA  PHE     2      34.550  33.360  29.350  1.00  0.00     0.189 C 
BRANCH  57  58
ATOM     58  N   PHE     2      33.260  34.080  29.180  1.00  0.00    -0.228 NA
ATOM     59  C   ARG     1      33.040  34.930  28.180  1.00  0.00     0.289 C 
ATOM     60  O   ARG     1      33.740  35.020  27.180  1.00  0.00    -0.268 OA
BRANCH  59  61
ATOM     61  CA  ARG     1      31.830  35.880  28.280  1.00  0.00     0.381 C 
ATOM     62  N   ARG     1      32.290  37.140  27.660  1.00  0.00     0.626 N 
BRANCH  61  63
ATOM     63  CB  ARG     1      30.610  35.350  27.510  1.00  0.00     0.051 C 
BRANCH  63  64
ATOM     64  CG  ARG     1      29.940  34.140  28.190  1.00  0.00     0.030 C 
BRANCH  64  65
ATOM     65  CD  ARG     1      28.740  33.550  27.440  1.00  0.00     0.145 C 
BRANCH  65  66
ATOM     66  NE  ARG     1      27.480  34.300  27.660  1.00  0.00    -0.083 NA
ATOM     67  CZ  ARG     1      26.600  34.100  28.670  1.00  0.00     0.782 C 
ATOM     68  NH2 ARG     1      25.490  34.840  28.720  1.00  0.00     0.063 N 
ATOM     69  NH1 ARG     1      26.770  33.150  29.590  1.00  0.00     0.063 N 
ENDBRANCH  65  66
ENDBRANCH  64  65
ENDBRANCH  63  64
ENDBRANCH  61  63
ENDBRANCH  59  61
ENDBRANCH  57  58
BRANCH  57  70
ATOM     70  CB  PHE     2      35.080  33.670  30.760  1.00  0.00     0.060 C 
BRANCH  70  71
ATOM     71  CG  PHE     2      35.520  35.130  30.900  1.00  0.00    -0.020 A 
ATOM     72  CD1 PHE     2      34.740  36.050  31.590  1.00  0.00    -0.004 A 
ATOM     73  CE1 PHE     2      35.140  37.370  31.690  1.00  0.00    -0.000 A 
ATOM     74  CZ  PHE     2      36.330  37.780  31.100  1.00  0.00    -0.000 A 
ATOM     75  CE2 PHE     2      37.120  36.870  30.410  1.00  0.00    -0.000 A 
ATOM     76  CD2 PHE     2      36.720  35.540  30.310  1.00  0.00    -0.004 A 
ENDBRANCH  70  71
ENDBRANCH  57  70
ENDBRANCH  55  57
ENDBRANCH  48  50
ENDBRANCH   1  47
BRANCH  13  77
ATOM     77  C   PRO     7      29.200  25.770  30.020  1.00  0.00     0.272 C 
ATOM     78  O   PRO     7      28.300  25.010  29.750  1.00  0.00    -0.269 OA
ATOM     79  N   PHE     8      29.140  26.620  31.050  1.00  0.00    -0.228 NA
BRANCH  79  80
ATOM     80  CA  PHE     8      28.000  26.670  32.010  1.00  0.00     0.191 C 
BRANCH  80  81
ATOM     81  C   PHE     8      26.630  27.070  31.400  1.00  0.00     0.275 C 
ATOM     82  N   LEU     9      26.660  27.810  30.290  1.00  0.00    -0.229 NA
ATOM     83  O   PHE     8      25.580  26.810  31.980  1.00  0.00    -0.268 OA
BRANCH  82  84
ATOM     84  CA  LEU     9      25.450  28.260  29.570  1.00  0.00     0.186 C 
BRANCH  84  85
ATOM     85  C   LEU     9      24.910  27.220  28.550  1.00  0.00     0.274 C 
ATOM     86  N   ARG    10      25.720  26.210  28.260  1.00  0.00    -0.227 NA
ATOM     87  O   LEU     9      23.760  27.300  28.140  1.00  0.00    -0.268 OA
BRANCH  86  88
ATOM     88  CA  ARG    10      25.640  25.420  27.020  1.00  0.00     0.193 C 
BRANCH  88  89
ATOM     89  CB  ARG    10      27.020  25.470  26.380  1.00  0.00     0.038 C 
BRANCH  89  90
ATOM     90  CG  ARG    10      27.170  26.390  25.180  1.00  0.00     0.030 C 
BRANCH  90  91
ATOM     91  CD  ARG    10      28.360  25.860  24.380  1.00  0.00     0.145 C 
BRANCH  91  92
ATOM     92  NE  ARG    10      27.990  24.590  23.730  1.00  0.00    -0.083 NA
ATOM     93  CZ  ARG    10      28.390  23.350  24.090  1.00  0.00     0.782 C 
ATOM     94  NH2 ARG    10      28.180  22.340  23.240  1.00  0.00     0.063 N 
ATOM     95  NH1 ARG    10      29.060  23.110  25.220  1.00  0.00     0.063 N 
ENDBRANCH  91  92
ENDBRANCH  90  91
ENDBRANCH  89  90
ENDBRANCH  88  89
BRANCH  88  96
ATOM     96  C   ARG    10      25.390  23.930  27.260  1.00  0.00     0.209 C 
ATOM     97  O2  ARG    10      25.120  23.260  26.240  1.00  0.00    -0.646 OA
ATOM     98  O1  ARG    10      25.870  23.460  28.320  1.00  0.00    -0.646 OA
ENDBRANCH  88  96
ENDBRANCH  86  88
ENDBRANCH  84  85
BRANCH  84  99
ATOM     99  CB  LEU     9      25.810  29.570  28.850  1.00  0.00     0.034 C 
BRANCH  99 100
ATOM    100  CG  LEU     9      24.630  30.340  28.250  1.00  0.00     0.002 C 
ATOM    101  CD2 LEU     9      25.090  31.280  27.140  1.00  0.00     0.000 C 
ATOM    102  CD1 LEU     9      23.830  31.070  29.340  1.00  0.00     0.000 C 
ENDBRANCH  99 100
ENDBRANCH  84  99
ENDBRANCH  82  84
ENDBRANCH  80  81
BRANCH  80 103
ATOM    103  CB  PHE     8      28.390  27.580  33.190  1.00  0.00     0.060 C 
BRANCH 103 104
ATOM    104  CG  PHE     8      27.390  27.570  34.340  1.00  0.00    -0.020 A 
ATOM    105  CD2 PHE     8      26.440  28.590  34.440  1.00  0.00    -0.004 A 
ATOM    106  CE2 PHE     8      25.470  28.550  35.440  1.00  0.00    -0.000 A 
ATOM    107  CZ  PHE     8      25.440  27.490  36.330  1.00  0.00    -0.000 A 
ATOM    108  CE1 PHE     8      26.390  26.470  36.240  1.00  0.00    -0.000 A 
ATOM    109  CD1 PHE     8      27.360  26.520  35.250  1.00  0.00    -0.004 A 
ENDBRANCH 103 104
ENDBRANCH  80 103
ENDBRANCH  79  80
ENDBRANCH  13  77
TORSDOF 37
