REMARK  32 active torsions:
REMARK  status: ('A' for Active; 'I' for Inactive)
REMARK    1  A    between atoms: CA_2  and  C_7 
REMARK    2  A    between atoms: CA_2  and  CB_3 
REMARK    3  A    between atoms: CB_3  and  CG1_4 
REMARK       I    between atoms: C_7  and  N_9 
REMARK    4  A    between atoms: N_9  and  CA_10 
REMARK    5  A    between atoms: CA_10  and  C_11 
REMARK       I    between atoms: C_11  and  N_13 
REMARK    6  A    between atoms: N_13  and  CA_14 
REMARK    7  A    between atoms: CA_14  and  C_15 
REMARK       I    between atoms: C_15  and  N_17 
REMARK    8  A    between atoms: N_17  and  CA_18 
REMARK    9  A    between atoms: CA_18  and  CB_19 
REMARK   10  A    between atoms: CA_18  and  C_27 
REMARK   11  A    between atoms: CB_19  and  CG_20 
REMARK       I    between atoms: C_27  and  N_29 
REMARK   12  A    between atoms: N_29  and  CA_30 
REMARK   13  A    between atoms: CA_30  and  CB_31 
REMARK   14  A    between atoms: CA_30  and  C_33 
REMARK       I    between atoms: C_33  and  N_35 
REMARK       I    between atoms: N_35  and  CA_36 
REMARK   15  A    between atoms: CA_36  and  CB_37 
REMARK       I    between atoms: CA_36  and  C_39 
REMARK       I    between atoms: C_39  and  N_41 
REMARK       I    between atoms: N_41  and  CA_42 
REMARK   16  A    between atoms: CA_42  and  CB_43 
REMARK   17  A    between atoms: CA_42  and  C_53 
REMARK   18  A    between atoms: CB_43  and  CG_44 
REMARK       I    between atoms: C_53  and  N_55 
REMARK   19  A    between atoms: N_55  and  CA_56 
REMARK   20  A    between atoms: CA_56  and  CB_57 
REMARK   21  A    between atoms: CA_56  and  C_61 
REMARK   22  A    between atoms: CB_57  and  CG_58 
REMARK       I    between atoms: C_61  and  N_63 
REMARK   23  A    between atoms: N_63  and  CA_64 
REMARK   24  A    between atoms: CA_64  and  CB_65 
REMARK   25  A    between atoms: CA_64  and  C_72 
REMARK   26  A    between atoms: CB_65  and  CG_66 
REMARK   27  A    between atoms: CG_66  and  CD_67 
REMARK   28  A    between atoms: CD_67  and  NE_68 
REMARK       I    between atoms: C_72  and  N_74 
REMARK   29  A    between atoms: N_74  and  CA_75 
REMARK   30  A    between atoms: CA_75  and  C_80 
REMARK   31  A    between atoms: CA_75  and  CB_76 
REMARK   32  A    between atoms: CB_76  and  CG_77 
ROOT
ATOM      1  C   CYS     5      27.700  29.640  29.880  1.00  0.00     0.275 C 
ATOM      2  O   CYS     5      28.120  30.680  30.370  1.00  0.00    -0.268 OA
ATOM      3  N   SER     6      27.880  28.460  30.470  1.00  0.00    -0.226 NA
ATOM      4  CA  SER     6      29.030  28.160  31.350  1.00  0.00     0.219 C 
ATOM      5  C   SER     6      30.340  28.070  30.550  1.00  0.00     0.277 C 
ATOM      6  O   SER     6      31.180  28.930  30.740  1.00  0.00    -0.268 OA
ATOM      7  N   TRP     7      30.330  27.270  29.480  1.00  0.00    -0.228 NA
ATOM      8  CA  TRP     7      31.470  27.100  28.550  1.00  0.00     0.191 C 
ENDROOT
BRANCH   8   9
ATOM      9  CB  TRP     7      31.030  26.100  27.470  1.00  0.00     0.062 C 
BRANCH   9  10
ATOM     10  CG  TRP     7      32.140  25.710  26.490  1.00  0.00     0.001 A 
ATOM     11  CD1 TRP     7      33.170  24.910  26.750  1.00  0.00     0.095 A 
ATOM     12  NE1 TRP     7      34.040  24.950  25.750  1.00  0.00    -0.244 NA
ATOM     13  CE2 TRP     7      33.590  25.780  24.810  1.00  0.00     0.081 A 
ATOM     14  CD2 TRP     7      32.380  26.280  25.250  1.00  0.00     0.015 A 
ATOM     15  CZ2 TRP     7      34.120  26.210  23.600  1.00  0.00     0.019 A 
ATOM     16  CE3 TRP     7      31.700  27.230  24.490  1.00  0.00     0.001 A 
ATOM     17  CZ3 TRP     7      32.240  27.670  23.290  1.00  0.00     0.000 A 
ATOM     18  CH2 TRP     7      33.450  27.160  22.850  1.00  0.00     0.002 A 
ENDBRANCH   9  10
ENDBRANCH   8   9
BRANCH   8  19
ATOM     19  C   TRP     7      31.990  28.420  27.930  1.00  0.00     0.275 C 
ATOM     20  O   TRP     7      33.150  28.750  28.080  1.00  0.00    -0.268 OA
ATOM     21  N   LEU     8      31.050  29.270  27.490  1.00  0.00    -0.229 NA
BRANCH  21  22
ATOM     22  CA  LEU     8      31.300  30.640  26.980  1.00  0.00     0.186 C 
BRANCH  22  23
ATOM     23  CB  LEU     8      29.980  31.110  26.340  1.00  0.00     0.034 C 
BRANCH  23  24
ATOM     24  CG  LEU     8      30.090  32.270  25.350  1.00  0.00     0.002 C 
ATOM     25  CD2 LEU     8      28.690  32.760  24.980  1.00  0.00     0.000 C 
ATOM     26  CD1 LEU     8      30.880  31.870  24.100  1.00  0.00     0.000 C 
ENDBRANCH  23  24
ENDBRANCH  22  23
BRANCH  22  27
ATOM     27  C   LEU     8      31.820  31.660  28.020  1.00  0.00     0.274 C 
ATOM     28  O   LEU     8      32.230  32.770  27.680  1.00  0.00    -0.268 OA
ATOM     29  N   ARG     9      31.690  31.330  29.310  1.00  0.00    -0.229 NA
BRANCH  29  30
ATOM     30  CA  ARG     9      32.040  32.220  30.440  1.00  0.00     0.186 C 
BRANCH  30  31
ATOM     31  CB  ARG     9      30.840  32.330  31.380  1.00  0.00     0.036 C 
BRANCH  31  32
ATOM     32  CG  ARG     9      29.830  33.410  31.020  1.00  0.00     0.029 C 
BRANCH  32  33
ATOM     33  CD  ARG     9      28.790  33.510  32.130  1.00  0.00     0.145 C 
BRANCH  33  34
ATOM     34  NE  ARG     9      29.450  33.890  33.400  1.00  0.00    -0.083 NA
ATOM     35  CZ  ARG     9      28.990  33.650  34.640  1.00  0.00     0.782 C 
ATOM     36  NH1 ARG     9      27.880  32.930  34.840  1.00  0.00     0.063 N 
ATOM     37  NH2 ARG     9      29.590  34.220  35.680  1.00  0.00     0.063 N 
ENDBRANCH  33  34
ENDBRANCH  32  33
ENDBRANCH  31  32
ENDBRANCH  30  31
BRANCH  30  38
ATOM     38  C   ARG     9      33.240  31.760  31.300  1.00  0.00     0.274 C 
ATOM     39  N   LEU    10      33.910  30.700  30.870  1.00  0.00    -0.227 NA
ATOM     40  O   ARG     9      33.420  32.320  32.390  1.00  0.00    -0.268 OA
BRANCH  39  41
ATOM     41  CA  LEU    10      35.070  30.110  31.570  1.00  0.00     0.193 C 
BRANCH  41  42
ATOM     42  C   LEU    10      36.300  30.300  30.670  1.00  0.00     0.209 C 
ATOM     43  O1  LEU    10      36.100  30.370  29.440  1.00  0.00    -0.646 OA
ATOM     44  O2  LEU    10      37.410  30.380  31.240  1.00  0.00    -0.646 OA
ENDBRANCH  41  42
BRANCH  41  45
ATOM     45  CB  LEU    10      34.860  28.600  31.770  1.00  0.00     0.035 C 
BRANCH  45  46
ATOM     46  CG  LEU    10      33.830  28.240  32.850  1.00  0.00     0.003 C 
ATOM     47  CD2 LEU    10      34.340  28.620  34.250  1.00  0.00     0.000 C 
ATOM     48  CD1 LEU    10      33.530  26.750  32.790  1.00  0.00     0.000 C 
ENDBRANCH  45  46
ENDBRANCH  41  45
ENDBRANCH  39  41
ENDBRANCH  30  38
ENDBRANCH  29  30
ENDBRANCH  22  27
ENDBRANCH  21  22
ENDBRANCH   8  19
BRANCH   4  49
ATOM     49  CB  SER     6      28.850  26.860  32.150  1.00  0.00     0.216 C 
ATOM     50  OG  SER     6      27.640  26.910  32.910  1.00  0.00    -0.218 OA
ENDBRANCH   4  49
BRANCH   1  51
ATOM     51  CA  CYS     5      26.540  29.710  28.870  1.00  0.00     0.198 C 
BRANCH  51  52
ATOM     52  N   CYS     5      26.340  28.440  28.120  1.00  0.00    -0.228 NA
ATOM     53  C   TYR     4      27.260  27.900  27.330  1.00  0.00     0.275 C 
ATOM     54  O   TYR     4      28.380  28.380  27.200  1.00  0.00    -0.268 OA
BRANCH  53  55
ATOM     55  CA  TYR     4      26.940  26.520  26.700  1.00  0.00     0.191 C 
BRANCH  55  56
ATOM     56  CB  TYR     4      26.140  26.670  25.400  1.00  0.00     0.060 C 
BRANCH  56  57
ATOM     57  CG  TYR     4      26.880  27.500  24.350  1.00  0.00    -0.020 A 
ATOM     58  CD1 TYR     4      27.920  26.930  23.620  1.00  0.00    -0.002 A 
ATOM     59  CE1 TYR     4      28.630  27.700  22.700  1.00  0.00     0.027 A 
ATOM     60  CZ  TYR     4      28.300  29.030  22.510  1.00  0.00     0.131 A 
ATOM     61  CE2 TYR     4      27.250  29.610  23.240  1.00  0.00     0.027 A 
ATOM     62  OH  TYR     4      28.980  29.760  21.590  1.00  0.00    -0.190 OA
ATOM     63  CD2 TYR     4      26.550  28.840  24.150  1.00  0.00    -0.002 A 
ENDBRANCH  56  57
ENDBRANCH  55  56
BRANCH  55  64
ATOM     64  N   TYR     4      26.250  25.560  27.590  1.00  0.00    -0.228 NA
ATOM     65  C   GLY     3      26.740  25.150  28.760  1.00  0.00     0.277 C 
ATOM     66  O   GLY     3      27.750  25.630  29.280  1.00  0.00    -0.268 OA
BRANCH  65  67
ATOM     67  CA  GLY     3      25.830  24.190  29.550  1.00  0.00     0.218 C 
BRANCH  67  68
ATOM     68  N   GLY     3      24.860  24.760  30.520  1.00  0.00    -0.226 NA
ATOM     69  C   GLY     2      24.780  26.020  30.940  1.00  0.00     0.277 C 
ATOM     70  O   GLY     2      25.350  26.960  30.400  1.00  0.00    -0.268 OA
BRANCH  69  71
ATOM     71  CA  GLY     2      23.680  26.330  31.970  1.00  0.00     0.218 C 
BRANCH  71  72
ATOM     72  N   GLY     2      23.490  27.800  32.050  1.00  0.00    -0.226 NA
ATOM     73  C   ILE     1      22.570  28.400  32.800  1.00  0.00     0.289 C 
ATOM     74  O   ILE     1      21.630  27.840  33.340  1.00  0.00    -0.268 OA
BRANCH  73  75
ATOM     75  CA  ILE     1      22.550  29.940  32.780  1.00  0.00     0.381 C 
ATOM     76  N   ILE     1      21.140  30.350  32.910  1.00  0.00     0.626 N 
BRANCH  75  77
ATOM     77  CB  ILE     1      23.380  30.550  33.940  1.00  0.00     0.046 C 
ATOM     78  CG2 ILE     1      24.830  30.060  33.970  1.00  0.00     0.003 C 
BRANCH  77  79
ATOM     79  CG1 ILE     1      23.340  32.090  33.930  1.00  0.00     0.003 C 
ATOM     80  CD  ILE     1      23.960  32.740  32.690  1.00  0.00     0.000 C 
ENDBRANCH  77  79
ENDBRANCH  75  77
ENDBRANCH  73  75
ENDBRANCH  71  72
ENDBRANCH  69  71
ENDBRANCH  67  68
ENDBRANCH  65  67
ENDBRANCH  55  64
ENDBRANCH  53  55
ENDBRANCH  51  52
BRANCH  51  81
ATOM     81  CB  CYS     5      25.340  30.120  29.730  1.00  0.00     0.103 C 
ATOM     82  SG  CYS     5      23.700  30.160  28.920  1.00  0.00    -0.080 SA
ENDBRANCH  51  81
ENDBRANCH   1  51
TORSDOF 35
