REMARK  30 active torsions:
REMARK  status: ('A' for Active; 'I' for Inactive)
REMARK    1  A    between atoms: CA_2  and  C_10 
REMARK    2  A    between atoms: CA_2  and  CB_3 
REMARK    3  A    between atoms: CB_3  and  CG_4 
REMARK       I    between atoms: C_10  and  N_12 
REMARK    4  A    between atoms: N_12  and  CA_13 
REMARK    5  A    between atoms: CA_13  and  C_18 
REMARK    6  A    between atoms: CA_13  and  CB_14 
REMARK    7  A    between atoms: CB_14  and  CG_15 
REMARK       I    between atoms: C_18  and  N_20 
REMARK    8  A    between atoms: CA_21  and  C_25 
REMARK       I    between atoms: C_25  and  N_27 
REMARK    9  A    between atoms: N_27  and  CA_28 
REMARK   10  A    between atoms: CA_28  and  C_29 
REMARK       I    between atoms: C_29  and  N_31 
REMARK   11  A    between atoms: N_31  and  CA_32 
REMARK   12  A    between atoms: CA_32  and  C_37 
REMARK   13  A    between atoms: CA_32  and  CB_33 
REMARK   14  A    between atoms: CB_33  and  CG_34 
REMARK       I    between atoms: C_37  and  N_39 
REMARK   15  A    between atoms: N_39  and  CA_40 
REMARK   16  A    between atoms: CA_40  and  CB_41 
REMARK   17  A    between atoms: CA_40  and  C_45 
REMARK   18  A    between atoms: CB_41  and  CG_42 
REMARK       I    between atoms: C_45  and  N_47 
REMARK   19  A    between atoms: N_47  and  CA_48 
REMARK   20  A    between atoms: CA_48  and  C_50 
REMARK       I    between atoms: C_50  and  N_52 
REMARK   21  A    between atoms: N_52  and  CA_53 
REMARK   22  A    between atoms: CA_53  and  C_54 
REMARK       I    between atoms: C_54  and  N_56 
REMARK   23  A    between atoms: N_56  and  CA_57 
REMARK   24  A    between atoms: CA_57  and  C_62 
REMARK   25  A    between atoms: CA_57  and  CB_58 
REMARK   26  A    between atoms: CB_58  and  CG_59 
REMARK       I    between atoms: C_62  and  N_64 
REMARK   27  A    between atoms: N_64  and  CA_65 
REMARK   28  A    between atoms: CA_65  and  C_70 
REMARK   29  A    between atoms: CA_65  and  CB_66 
REMARK   30  A    between atoms: CB_66  and  CG_67 
ROOT
ATOM      1  CA  LEU     5      29.610  31.520  29.930  1.00  0.00     0.186 C 
ENDROOT
BRANCH   1   2
ATOM      2  N   LEU     5      28.930  30.340  30.520  1.00  0.00    -0.229 NA
ATOM      3  C   GLY     4      28.210  29.480  29.800  1.00  0.00     0.277 C 
ATOM      4  O   GLY     4      28.080  29.560  28.580  1.00  0.00    -0.268 OA
BRANCH   3   5
ATOM      5  CA  GLY     4      27.680  28.250  30.550  1.00  0.00     0.218 C 
BRANCH   5   6
ATOM      6  N   GLY     4      28.680  27.550  31.390  1.00  0.00    -0.226 NA
ATOM      7  C   PRO     3      29.860  27.110  30.950  1.00  0.00     0.272 C 
ATOM      8  O   PRO     3      30.290  27.330  29.820  1.00  0.00    -0.269 OA
BRANCH   7   9
ATOM      9  CA  PRO     3      30.810  26.520  32.000  1.00  0.00     0.165 C 
ATOM     10  CB  PRO     3      30.240  25.210  32.560  1.00  0.00     0.034 C 
ATOM     11  CG  PRO     3      30.830  25.160  33.960  1.00  0.00     0.027 C 
ATOM     12  CD  PRO     3      30.760  26.620  34.410  1.00  0.00     0.105 C 
ATOM     13  N   PRO     3      30.970  27.410  33.180  1.00  0.00    -0.312 N 
ATOM     14  C   LEU     2      31.440  28.670  33.090  1.00  0.00     0.256 C 
ATOM     15  O   LEU     2      31.620  29.220  32.000  1.00  0.00    -0.270 OA
BRANCH  14  16
ATOM     16  CA  LEU     2      31.460  29.610  34.330  1.00  0.00     0.184 C 
BRANCH  16  17
ATOM     17  N   LEU     2      30.230  29.660  35.150  1.00  0.00    -0.229 NA
ATOM     18  C   PHE     1      29.050  30.020  34.620  1.00  0.00     0.289 C 
ATOM     19  O   PHE     1      28.860  29.930  33.410  1.00  0.00    -0.268 OA
BRANCH  18  20
ATOM     20  CA  PHE     1      27.800  30.210  35.520  1.00  0.00     0.385 C 
ATOM     21  N   PHE     1      27.980  30.570  36.940  1.00  0.00     0.626 N 
BRANCH  20  22
ATOM     22  CB  PHE     1      26.890  31.260  34.870  1.00  0.00     0.075 C 
BRANCH  22  23
ATOM     23  CG  PHE     1      25.460  31.190  35.400  1.00  0.00    -0.019 A 
ATOM     24  CD2 PHE     1      24.600  30.220  34.900  1.00  0.00    -0.004 A 
ATOM     25  CE2 PHE     1      23.360  30.020  35.500  1.00  0.00    -0.000 A 
ATOM     26  CZ  PHE     1      22.980  30.790  36.590  1.00  0.00    -0.000 A 
ATOM     27  CE1 PHE     1      23.840  31.770  37.070  1.00  0.00    -0.000 A 
ATOM     28  CD1 PHE     1      25.070  31.990  36.480  1.00  0.00    -0.004 A 
ENDBRANCH  22  23
ENDBRANCH  20  22
ENDBRANCH  18  20
ENDBRANCH  16  17
BRANCH  16  29
ATOM     29  CB  LEU     2      32.690  29.400  35.240  1.00  0.00     0.034 C 
BRANCH  29  30
ATOM     30  CG  LEU     2      34.050  29.500  34.520  1.00  0.00     0.002 C 
ATOM     31  CD1 LEU     2      34.320  30.930  34.040  1.00  0.00     0.000 C 
ATOM     32  CD2 LEU     2      35.170  29.000  35.440  1.00  0.00     0.000 C 
ENDBRANCH  29  30
ENDBRANCH  16  29
ENDBRANCH  14  16
ENDBRANCH   7   9
ENDBRANCH   5   6
ENDBRANCH   3   5
ENDBRANCH   1   2
BRANCH   1  33
ATOM     33  C   LEU     5      30.630  31.140  28.840  1.00  0.00     0.274 C 
ATOM     34  N   LEU     6      31.520  30.200  29.150  1.00  0.00    -0.229 NA
ATOM     35  O   LEU     5      30.430  31.510  27.690  1.00  0.00    -0.268 OA
BRANCH  34  36
ATOM     36  CA  LEU     6      32.500  29.650  28.180  1.00  0.00     0.186 C 
BRANCH  36  37
ATOM     37  CB  LEU     6      33.440  28.640  28.840  1.00  0.00     0.034 C 
BRANCH  37  38
ATOM     38  CG  LEU     6      34.410  29.290  29.840  1.00  0.00     0.002 C 
ATOM     39  CD2 LEU     6      35.400  30.220  29.130  1.00  0.00     0.000 C 
ATOM     40  CD1 LEU     6      35.160  28.210  30.600  1.00  0.00     0.000 C 
ENDBRANCH  37  38
ENDBRANCH  36  37
BRANCH  36  41
ATOM     41  C   LEU     6      31.830  29.010  26.940  1.00  0.00     0.274 C 
ATOM     42  N   ALA     7      30.850  28.140  27.190  1.00  0.00    -0.229 NA
ATOM     43  O   LEU     6      32.010  29.500  25.840  1.00  0.00    -0.268 OA
BRANCH  42  44
ATOM     44  CA  ALA     7      30.030  27.460  26.150  1.00  0.00     0.186 C 
ATOM     45  CB  ALA     7      29.140  26.420  26.830  1.00  0.00     0.037 C 
BRANCH  44  46
ATOM     46  C   ALA     7      29.170  28.380  25.250  1.00  0.00     0.274 C 
ATOM     47  N   GLY     8      28.840  29.560  25.760  1.00  0.00    -0.226 NA
ATOM     48  O   ALA     7      28.570  27.880  24.300  1.00  0.00    -0.268 OA
BRANCH  47  49
ATOM     49  CA  GLY     8      28.170  30.640  25.000  1.00  0.00     0.218 C 
BRANCH  49  50
ATOM     50  C   GLY     8      29.080  31.650  24.270  1.00  0.00     0.277 C 
ATOM     51  O   GLY     8      28.560  32.570  23.650  1.00  0.00    -0.268 OA
ATOM     52  N   LEU     9      30.350  31.690  24.690  1.00  0.00    -0.229 NA
BRANCH  52  53
ATOM     53  CA  LEU     9      31.420  32.510  24.060  1.00  0.00     0.186 C 
BRANCH  53  54
ATOM     54  C   LEU     9      32.250  31.820  22.960  1.00  0.00     0.274 C 
ATOM     55  N   LEU    10      32.310  30.490  23.030  1.00  0.00    -0.227 NA
ATOM     56  O   LEU     9      33.070  32.500  22.330  1.00  0.00    -0.268 OA
BRANCH  55  57
ATOM     57  CA  LEU    10      32.940  29.610  22.030  1.00  0.00     0.193 C 
BRANCH  57  58
ATOM     58  C   LEU    10      32.130  29.510  20.720  1.00  0.00     0.209 C 
ATOM     59  O1  LEU    10      30.890  29.540  20.800  1.00  0.00    -0.646 OA
ATOM     60  O2  LEU    10      32.790  29.270  19.680  1.00  0.00    -0.646 OA
ENDBRANCH  57  58
BRANCH  57  61
ATOM     61  CB  LEU    10      33.080  28.180  22.590  1.00  0.00     0.035 C 
BRANCH  61  62
ATOM     62  CG  LEU    10      34.160  28.050  23.680  1.00  0.00     0.003 C 
ATOM     63  CD2 LEU    10      35.560  28.240  23.100  1.00  0.00     0.000 C 
ATOM     64  CD1 LEU    10      34.050  26.670  24.330  1.00  0.00     0.000 C 
ENDBRANCH  61  62
ENDBRANCH  57  61
ENDBRANCH  55  57
ENDBRANCH  53  54
BRANCH  53  65
ATOM     65  CB  LEU     9      32.360  33.050  25.140  1.00  0.00     0.034 C 
BRANCH  65  66
ATOM     66  CG  LEU     9      31.750  34.150  26.010  1.00  0.00     0.002 C 
ATOM     67  CD2 LEU     9      31.540  35.440  25.210  1.00  0.00     0.000 C 
ATOM     68  CD1 LEU     9      32.660  34.420  27.210  1.00  0.00     0.000 C 
ENDBRANCH  65  66
ENDBRANCH  53  65
ENDBRANCH  52  53
ENDBRANCH  49  50
ENDBRANCH  47  49
ENDBRANCH  44  46
ENDBRANCH  42  44
ENDBRANCH  36  41
ENDBRANCH  34  36
ENDBRANCH   1  33
BRANCH   1  69
ATOM     69  CB  LEU     5      30.290  32.380  31.000  1.00  0.00     0.034 C 
BRANCH  69  70
ATOM     70  CG  LEU     5      29.290  33.180  31.830  1.00  0.00     0.002 C 
ATOM     71  CD2 LEU     5      28.600  34.250  30.990  1.00  0.00     0.000 C 
ATOM     72  CD1 LEU     5      30.020  33.840  33.010  1.00  0.00     0.000 C 
ENDBRANCH  69  70
ENDBRANCH   1  69
TORSDOF 30
