REMARK  27 active torsions:
REMARK  status: ('A' for Active; 'I' for Inactive)
REMARK    1  A    between atoms: CA_2  and  CB_3 
REMARK    2  A    between atoms: CA_2  and  C_8 
REMARK    3  A    between atoms: CB_3  and  CG_4 
REMARK    4  A    between atoms: CG_4  and  CD_5 
REMARK    5  A    between atoms: CD_5  and  CE_6 
REMARK       I    between atoms: C_8  and  N_10 
REMARK    6  A    between atoms: N_10  and  CA_11 
REMARK    7  A    between atoms: CA_11  and  CB_12 
REMARK    8  A    between atoms: CA_11  and  C_22 
REMARK    9  A    between atoms: CB_12  and  CG_13 
REMARK       I    between atoms: C_22  and  N_24 
REMARK   10  A    between atoms: N_24  and  CA_25 
REMARK   11  A    between atoms: CA_25  and  CB_26 
REMARK   12  A    between atoms: CA_25  and  C_36 
REMARK   13  A    between atoms: CB_26  and  CG_27 
REMARK       I    between atoms: C_36  and  N_38 
REMARK   14  A    between atoms: N_38  and  CA_39 
REMARK   15  A    between atoms: CA_39  and  CB_40 
REMARK   16  A    between atoms: CA_39  and  C_50 
REMARK   17  A    between atoms: CB_40  and  CG_41 
REMARK       I    between atoms: C_50  and  N_52 
REMARK   18  A    between atoms: N_52  and  CA_53 
REMARK   19  A    between atoms: CA_53  and  CB_54 
REMARK   20  A    between atoms: CA_53  and  C_61 
REMARK   21  A    between atoms: CB_54  and  CG_55 
REMARK   22  A    between atoms: CG_55  and  CD_56 
REMARK   23  A    between atoms: CD_56  and  NE_57 
REMARK       I    between atoms: C_61  and  N_63 
REMARK   24  A    between atoms: N_63  and  CA_64 
REMARK   25  A    between atoms: CA_64  and  CB_65 
REMARK   26  A    between atoms: CA_64  and  C_75 
REMARK   27  A    between atoms: CB_65  and  CG_66 
ROOT
ATOM      1  CA  TRP     4      28.750  25.790  30.020  1.00  0.00     0.191 C 
ENDROOT
BRANCH   1   2
ATOM      2  N   TRP     4      27.770  26.890  29.790  1.00  0.00    -0.228 NA
ATOM      3  C   TRP     3      27.350  27.750  30.720  1.00  0.00     0.275 C 
ATOM      4  O   TRP     3      27.670  27.660  31.890  1.00  0.00    -0.268 OA
BRANCH   3   5
ATOM      5  CA  TRP     3      26.460  28.920  30.230  1.00  0.00     0.191 C 
BRANCH   5   6
ATOM      6  N   TRP     3      27.020  29.760  29.140  1.00  0.00    -0.228 NA
ATOM      7  C   TRP     2      28.300  30.130  29.050  1.00  0.00     0.275 C 
ATOM      8  O   TRP     2      29.170  29.790  29.840  1.00  0.00    -0.268 OA
BRANCH   7   9
ATOM      9  CA  TRP     2      28.750  30.770  27.720  1.00  0.00     0.191 C 
BRANCH   9  10
ATOM     10  N   TRP     2      28.620  29.970  26.480  1.00  0.00    -0.228 NA
ATOM     11  C   LYS     1      29.060  28.700  26.400  1.00  0.00     0.289 C 
ATOM     12  O   LYS     1      29.510  28.070  27.340  1.00  0.00    -0.268 OA
BRANCH  11  13
ATOM     13  CA  LYS     1      28.870  27.910  25.100  1.00  0.00     0.381 C 
ATOM     14  N   LYS     1      27.450  27.770  24.750  1.00  0.00     0.626 N 
BRANCH  13  15
ATOM     15  CB  LYS     1      29.760  28.460  23.970  1.00  0.00     0.049 C 
BRANCH  15  16
ATOM     16  CG  LYS     1      31.250  28.270  24.290  1.00  0.00     0.005 C 
BRANCH  16  17
ATOM     17  CD  LYS     1      32.200  28.620  23.150  1.00  0.00     0.041 C 
BRANCH  17  18
ATOM     18  CE  LYS     1      33.660  28.340  23.550  1.00  0.00     0.338 C 
ATOM     19  NZ  LYS     1      34.620  28.530  22.450  1.00  0.00     0.618 N 
ENDBRANCH  17  18
ENDBRANCH  16  17
ENDBRANCH  15  16
ENDBRANCH  13  15
ENDBRANCH  11  13
ENDBRANCH   9  10
BRANCH   9  20
ATOM     20  CB  TRP     2      28.200  32.180  27.510  1.00  0.00     0.062 C 
BRANCH  20  21
ATOM     21  CG  TRP     2      29.040  32.940  26.480  1.00  0.00     0.001 A 
ATOM     22  CD1 TRP     2      28.610  33.390  25.300  1.00  0.00     0.095 A 
ATOM     23  NE1 TRP     2      29.520  34.220  24.780  1.00  0.00    -0.244 NA
ATOM     24  CE2 TRP     2      30.550  34.320  25.610  1.00  0.00     0.081 A 
ATOM     25  CD2 TRP     2      30.280  33.530  26.720  1.00  0.00     0.015 A 
ATOM     26  CZ2 TRP     2      31.680  35.130  25.600  1.00  0.00     0.019 A 
ATOM     27  CE3 TRP     2      31.120  33.560  27.820  1.00  0.00     0.001 A 
ATOM     28  CZ3 TRP     2      32.240  34.380  27.820  1.00  0.00     0.000 A 
ATOM     29  CH2 TRP     2      32.530  35.170  26.710  1.00  0.00     0.002 A 
ENDBRANCH  20  21
ENDBRANCH   9  20
ENDBRANCH   7   9
ENDBRANCH   5   6
BRANCH   5  30
ATOM     30  CB  TRP     3      25.100  28.420  29.730  1.00  0.00     0.062 C 
BRANCH  30  31
ATOM     31  CG  TRP     3      24.200  27.860  30.840  1.00  0.00     0.001 A 
ATOM     32  CD2 TRP     3      24.050  26.530  31.200  1.00  0.00     0.015 A 
ATOM     33  CE3 TRP     3      24.570  25.340  30.700  1.00  0.00     0.001 A 
ATOM     34  CE2 TRP     3      23.250  26.510  32.330  1.00  0.00     0.081 A 
ATOM     35  CZ3 TRP     3      24.290  24.140  31.350  1.00  0.00     0.000 A 
ATOM     36  CH2 TRP     3      23.490  24.120  32.480  1.00  0.00     0.002 A 
ATOM     37  CZ2 TRP     3      22.960  25.310  32.970  1.00  0.00     0.019 A 
ATOM     38  NE1 TRP     3      22.970  27.780  32.640  1.00  0.00    -0.244 NA
ATOM     39  CD1 TRP     3      23.530  28.580  31.730  1.00  0.00     0.095 A 
ENDBRANCH  30  31
ENDBRANCH   5  30
ENDBRANCH   3   5
ENDBRANCH   1   2
BRANCH   1  40
ATOM     40  CB  TRP     4      28.740  24.850  28.800  1.00  0.00     0.062 C 
BRANCH  40  41
ATOM     41  CG  TRP     4      27.450  24.030  28.640  1.00  0.00     0.001 A 
ATOM     42  CD2 TRP     4      27.100  22.900  29.360  1.00  0.00     0.015 A 
ATOM     43  CE2 TRP     4      26.000  22.340  28.730  1.00  0.00     0.081 A 
ATOM     44  CE3 TRP     4      27.550  22.350  30.560  1.00  0.00     0.001 A 
ATOM     45  CZ2 TRP     4      25.360  21.240  29.270  1.00  0.00     0.019 A 
ATOM     46  NE1 TRP     4      25.720  23.110  27.680  1.00  0.00    -0.244 NA
ATOM     47  CH2 TRP     4      25.810  20.700  30.470  1.00  0.00     0.002 A 
ATOM     48  CZ3 TRP     4      26.900  21.260  31.110  1.00  0.00     0.000 A 
ATOM     49  CD1 TRP     4      26.580  24.120  27.630  1.00  0.00     0.095 A 
ENDBRANCH  40  41
ENDBRANCH   1  40
BRANCH   1  50
ATOM     50  C   TRP     4      30.220  26.120  30.370  1.00  0.00     0.275 C 
ATOM     51  N   ARG     5      30.620  27.400  30.320  1.00  0.00    -0.229 NA
ATOM     52  O   TRP     4      31.030  25.200  30.450  1.00  0.00    -0.268 OA
BRANCH  51  53
ATOM     53  CA  ARG     5      32.020  27.810  30.600  1.00  0.00     0.186 C 
BRANCH  53  54
ATOM     54  CB  ARG     5      32.750  28.230  29.310  1.00  0.00     0.036 C 
BRANCH  54  55
ATOM     55  CG  ARG     5      32.140  29.490  28.690  1.00  0.00     0.029 C 
BRANCH  55  56
ATOM     56  CD  ARG     5      33.100  30.280  27.820  1.00  0.00     0.145 C 
BRANCH  56  57
ATOM     57  NE  ARG     5      34.190  30.860  28.620  1.00  0.00    -0.083 NA
ATOM     58  CZ  ARG     5      35.020  31.830  28.190  1.00  0.00     0.782 C 
ATOM     59  NH1 ARG     5      34.770  32.500  27.060  1.00  0.00     0.063 N 
ATOM     60  NH2 ARG     5      36.200  32.030  28.800  1.00  0.00     0.063 N 
ENDBRANCH  56  57
ENDBRANCH  55  56
ENDBRANCH  54  55
ENDBRANCH  53  54
BRANCH  53  61
ATOM     61  C   ARG     5      32.150  28.920  31.670  1.00  0.00     0.274 C 
ATOM     62  N   TRP     6      31.120  29.010  32.500  1.00  0.00    -0.227 NA
ATOM     63  O   ARG     5      33.110  29.710  31.620  1.00  0.00    -0.268 OA
BRANCH  62  64
ATOM     64  CA  TRP     6      30.980  29.950  33.620  1.00  0.00     0.197 C 
BRANCH  64  65
ATOM     65  CB  TRP     6      29.880  30.980  33.340  1.00  0.00     0.064 C 
BRANCH  65  66
ATOM     66  CG  TRP     6      30.180  32.080  32.300  1.00  0.00     0.001 A 
ATOM     67  CD2 TRP     6      29.250  32.990  31.840  1.00  0.00     0.015 A 
ATOM     68  CE3 TRP     6      27.880  33.110  32.040  1.00  0.00     0.001 A 
ATOM     69  CE2 TRP     6      29.960  34.000  31.210  1.00  0.00     0.081 A 
ATOM     70  CZ3 TRP     6      27.220  34.250  31.600  1.00  0.00     0.000 A 
ATOM     71  CH2 TRP     6      27.920  35.250  30.940  1.00  0.00     0.002 A 
ATOM     72  CZ2 TRP     6      29.290  35.130  30.740  1.00  0.00     0.019 A 
ATOM     73  NE1 TRP     6      31.250  33.710  31.330  1.00  0.00    -0.244 NA
ATOM     74  CD1 TRP     6      31.380  32.540  31.940  1.00  0.00     0.095 A 
ENDBRANCH  65  66
ENDBRANCH  64  65
BRANCH  64  75
ATOM     75  C   TRP     6      30.550  29.080  34.810  1.00  0.00     0.209 C 
ATOM     76  O1  TRP     6      29.970  28.000  34.530  1.00  0.00    -0.646 OA
ATOM     77  O2  TRP     6      30.930  29.430  35.940  1.00  0.00    -0.646 OA
ENDBRANCH  64  75
ENDBRANCH  62  64
ENDBRANCH  53  61
ENDBRANCH  51  53
ENDBRANCH   1  50
TORSDOF 27
