REMARK  32 active torsions:
REMARK  status: ('A' for Active; 'I' for Inactive)
REMARK    1  A    between atoms: CA_2  and  C_3 
REMARK       I    between atoms: C_3  and  N_5 
REMARK    2  A    between atoms: N_5  and  CA_6 
REMARK    3  A    between atoms: CA_6  and  C_8 
REMARK       I    between atoms: C_8  and  N_10 
REMARK    4  A    between atoms: N_10  and  CA_11 
REMARK    5  A    between atoms: CA_11  and  C_18 
REMARK    6  A    between atoms: CA_11  and  CB_12 
REMARK    7  A    between atoms: CB_12  and  CG_13 
REMARK       I    between atoms: C_18  and  N_20 
REMARK    8  A    between atoms: N_20  and  CA_21 
REMARK    9  A    between atoms: CA_21  and  CB_22 
REMARK   10  A    between atoms: CA_21  and  C_26 
REMARK   11  A    between atoms: CB_22  and  CG_23 
REMARK       I    between atoms: C_26  and  N_28 
REMARK       I    between atoms: N_28  and  CA_29 
REMARK       I    between atoms: CA_29  and  C_34 
REMARK   12  A    between atoms: CA_29  and  CB_30 
REMARK   13  A    between atoms: CB_30  and  CG1_31 
REMARK       I    between atoms: C_34  and  N_36 
REMARK       I    between atoms: N_36  and  CA_37 
REMARK       I    between atoms: CA_37  and  C_42 
REMARK   14  A    between atoms: CA_37  and  CB_38 
REMARK   15  A    between atoms: CB_38  and  CG_39 
REMARK       I    between atoms: C_42  and  N_44 
REMARK       I    between atoms: N_44  and  CA_45 
REMARK       I    between atoms: CA_45  and  C_51 
REMARK   16  A    between atoms: CA_45  and  CB_46 
REMARK   17  A    between atoms: CB_46  and  CG_47 
REMARK   18  A    between atoms: CG_47  and  CD_48 
REMARK   19  A    between atoms: CD_48  and  CE_49 
REMARK       I    between atoms: C_51  and  N_53 
REMARK       I    between atoms: N_53  and  CA_54 
REMARK       I    between atoms: CA_54  and  C_63 
REMARK   20  A    between atoms: CA_54  and  CB_55 
REMARK   21  A    between atoms: CB_55  and  CG_56 
REMARK       I    between atoms: C_63  and  N_65 
REMARK       I    between atoms: N_65  and  CA_66 
REMARK   22  A    between atoms: CA_66  and  C_67 
REMARK       I    between atoms: C_67  and  N_69 
REMARK   23  A    between atoms: N_69  and  CA_70 
REMARK   24  A    between atoms: CA_70  and  CB_71 
REMARK   25  A    between atoms: CA_70  and  C_76 
REMARK   26  A    between atoms: CB_71  and  CG_72 
REMARK   27  A    between atoms: CG_72  and  CD_73 
REMARK   28  A    between atoms: CD_73  and  CE_74 
REMARK       I    between atoms: C_76  and  N_78 
REMARK   29  A    between atoms: CA_79  and  C_83 
REMARK       I    between atoms: C_83  and  N_85 
REMARK   30  A    between atoms: N_85  and  CA_86 
REMARK   31  A    between atoms: CA_86  and  C_89 
REMARK   32  A    between atoms: CA_86  and  CB_87 
ROOT
ATOM      1  C   ASP     4      29.600  32.640  34.050  1.00  0.00     0.275 C 
ATOM      2  O   ASP     4      29.490  32.660  32.820  1.00  0.00    -0.268 OA
ATOM      3  N   ILE     5      30.310  33.540  34.730  1.00  0.00    -0.229 NA
ATOM      4  CA  ILE     5      30.940  34.730  34.110  1.00  0.00     0.186 C 
ATOM      5  C   ILE     5      31.960  34.320  33.020  1.00  0.00     0.274 C 
ATOM      6  O   ILE     5      31.800  34.720  31.860  1.00  0.00    -0.268 OA
ATOM      7  N   LEU     6      32.840  33.380  33.350  1.00  0.00    -0.229 NA
ATOM      8  CA  LEU     6      33.790  32.770  32.390  1.00  0.00     0.186 C 
ATOM      9  C   LEU     6      33.070  32.100  31.200  1.00  0.00     0.274 C 
ATOM     10  O   LEU     6      33.350  32.430  30.050  1.00  0.00    -0.268 OA
ATOM     11  N   LYS     7      32.070  31.270  31.480  1.00  0.00    -0.229 NA
ATOM     12  CA  LYS     7      31.240  30.570  30.460  1.00  0.00     0.186 C 
ATOM     13  C   LYS     7      30.500  31.530  29.500  1.00  0.00     0.274 C 
ATOM     14  O   LYS     7      30.290  31.170  28.340  1.00  0.00    -0.268 OA
ATOM     15  N   TYR     8      29.990  32.640  30.030  1.00  0.00    -0.228 NA
ATOM     16  CA  TYR     8      29.340  33.690  29.220  1.00  0.00     0.191 C 
ATOM     17  C   TYR     8      30.300  34.630  28.470  1.00  0.00     0.275 C 
ATOM     18  O   TYR     8      29.940  35.170  27.430  1.00  0.00    -0.268 OA
ATOM     19  N   GLY     9      31.450  34.930  29.090  1.00  0.00    -0.226 NA
ATOM     20  CA  GLY     9      32.500  35.800  28.510  1.00  0.00     0.218 C 
ENDROOT
BRANCH  12  21
ATOM     21  CB  LYS     7      30.250  29.620  31.140  1.00  0.00     0.034 C 
BRANCH  21  22
ATOM     22  CG  LYS     7      29.530  28.700  30.150  1.00  0.00     0.005 C 
BRANCH  22  23
ATOM     23  CD  LYS     7      28.400  27.900  30.790  1.00  0.00     0.041 C 
BRANCH  23  24
ATOM     24  CE  LYS     7      27.610  27.170  29.700  1.00  0.00     0.338 C 
ATOM     25  NZ  LYS     7      26.480  26.400  30.240  1.00  0.00     0.618 N 
ENDBRANCH  23  24
ENDBRANCH  22  23
ENDBRANCH  21  22
ENDBRANCH  12  21
BRANCH  16  26
ATOM     26  CB  TYR     8      28.380  34.530  30.080  1.00  0.00     0.060 C 
BRANCH  26  27
ATOM     27  CG  TYR     8      27.240  33.760  30.780  1.00  0.00    -0.020 A 
ATOM     28  CD1 TYR     8      26.660  32.610  30.240  1.00  0.00    -0.002 A 
ATOM     29  CE1 TYR     8      25.650  31.950  30.930  1.00  0.00     0.027 A 
ATOM     30  CZ  TYR     8      25.210  32.440  32.150  1.00  0.00     0.131 A 
ATOM     31  OH  TYR     8      24.290  31.720  32.850  1.00  0.00    -0.190 OA
ATOM     32  CE2 TYR     8      25.760  33.600  32.680  1.00  0.00     0.027 A 
ATOM     33  CD2 TYR     8      26.770  34.250  31.990  1.00  0.00    -0.002 A 
ENDBRANCH  26  27
ENDBRANCH  16  26
BRANCH   8  34
ATOM     34  CB  LEU     6      34.690  31.780  33.140  1.00  0.00     0.034 C 
BRANCH  34  35
ATOM     35  CG  LEU     6      35.800  31.140  32.300  1.00  0.00     0.002 C 
ATOM     36  CD2 LEU     6      36.450  29.990  33.080  1.00  0.00     0.000 C 
ATOM     37  CD1 LEU     6      36.850  32.170  31.870  1.00  0.00     0.000 C 
ENDBRANCH  34  35
ENDBRANCH   8  34
BRANCH  20  38
ATOM     38  C   GLY     9      33.430  35.180  27.450  1.00  0.00     0.277 C 
ATOM     39  O   GLY     9      33.880  35.880  26.550  1.00  0.00    -0.268 OA
ATOM     40  N   LYS    10      33.840  33.930  27.660  1.00  0.00    -0.229 NA
BRANCH  40  41
ATOM     41  CA  LYS    10      34.800  33.250  26.760  1.00  0.00     0.184 C 
BRANCH  41  42
ATOM     42  CB  LYS    10      35.370  31.980  27.420  1.00  0.00     0.034 C 
BRANCH  42  43
ATOM     43  CG  LYS    10      34.360  30.830  27.520  1.00  0.00     0.005 C 
BRANCH  43  44
ATOM     44  CD  LYS    10      35.000  29.610  28.170  1.00  0.00     0.041 C 
BRANCH  44  45
ATOM     45  CE  LYS    10      34.000  28.460  28.170  1.00  0.00     0.338 C 
ATOM     46  NZ  LYS    10      34.590  27.300  28.860  1.00  0.00     0.618 N 
ENDBRANCH  44  45
ENDBRANCH  43  44
ENDBRANCH  42  43
ENDBRANCH  41  42
BRANCH  41  47
ATOM     47  C   LYS    10      34.250  32.930  25.350  1.00  0.00     0.256 C 
ATOM     48  O   LYS    10      33.070  32.570  25.220  1.00  0.00    -0.270 OA
ATOM     49  N   PRO    11      35.100  33.060  24.330  1.00  0.00    -0.312 N 
ATOM     50  CA  PRO    11      34.810  32.530  22.980  1.00  0.00     0.165 C 
ATOM     51  CD  PRO    11      36.300  33.920  24.320  1.00  0.00     0.105 C 
ATOM     52  CB  PRO    11      35.690  33.390  22.070  1.00  0.00     0.034 C 
ATOM     53  CG  PRO    11      36.910  33.710  22.930  1.00  0.00     0.027 C 
BRANCH  50  54
ATOM     54  C   PRO    11      35.140  31.030  22.890  1.00  0.00     0.272 C 
ATOM     55  N   SER    12      35.010  30.530  21.660  1.00  0.00    -0.225 NA
ATOM     56  O   PRO    11      35.260  30.350  23.910  1.00  0.00    -0.269 OA
BRANCH  55  57
ATOM     57  CA  SER    12      35.490  29.210  21.240  1.00  0.00     0.226 C 
BRANCH  57  58
ATOM     58  C   SER    12      36.860  29.440  20.580  1.00  0.00     0.211 C 
ATOM     59  O2  SER    12      36.860  30.070  19.490  1.00  0.00    -0.646 OA
ATOM     60  O1  SER    12      37.870  29.060  21.200  1.00  0.00    -0.646 OA
ENDBRANCH  57  58
BRANCH  57  61
ATOM     61  CB  SER    12      34.610  28.590  20.150  1.00  0.00     0.218 C 
ATOM     62  OG  SER    12      33.230  28.480  20.520  1.00  0.00    -0.218 OA
ENDBRANCH  57  61
ENDBRANCH  55  57
ENDBRANCH  50  54
ENDBRANCH  41  47
ENDBRANCH  40  41
ENDBRANCH  20  38
BRANCH   4  63
ATOM     63  CB  ILE     5      31.570  35.640  35.170  1.00  0.00     0.032 C 
ATOM     64  CG2 ILE     5      32.270  36.860  34.540  1.00  0.00     0.003 C 
BRANCH  63  65
ATOM     65  CG1 ILE     5      30.510  36.110  36.180  1.00  0.00     0.002 C 
ATOM     66  CD  ILE     5      31.120  36.790  37.410  1.00  0.00     0.000 C 
ENDBRANCH  63  65
ENDBRANCH   4  63
BRANCH   1  67
ATOM     67  CA  ASP     4      29.200  31.360  34.800  1.00  0.00     0.197 C 
BRANCH  67  68
ATOM     68  CB  ASP     4      27.950  31.570  35.680  1.00  0.00     0.132 C 
BRANCH  68  69
ATOM     69  CG  ASP     4      27.800  30.420  36.690  1.00  0.00     0.188 C 
ATOM     70  OD2 ASP     4      28.280  30.630  37.820  1.00  0.00    -0.647 OA
ATOM     71  OD1 ASP     4      27.560  29.280  36.250  1.00  0.00    -0.647 OA
ENDBRANCH  68  69
ENDBRANCH  67  68
BRANCH  67  72
ATOM     72  N   ASP     4      30.280  30.810  35.650  1.00  0.00    -0.228 NA
ATOM     73  C   HIS     3      31.440  30.360  35.190  1.00  0.00     0.275 C 
ATOM     74  O   HIS     3      31.760  30.390  34.010  1.00  0.00    -0.268 OA
BRANCH  73  75
ATOM     75  CA  HIS     3      32.430  29.830  36.250  1.00  0.00     0.192 C 
BRANCH  75  76
ATOM     76  CB  HIS     3      31.940  28.500  36.850  1.00  0.00     0.082 C 
BRANCH  76  77
ATOM     77  CG  HIS     3      31.460  27.500  35.800  1.00  0.00     0.082 A 
ATOM     78  CD2 HIS     3      30.190  27.130  35.620  1.00  0.00     0.116 A 
ATOM     79  NE2 HIS     3      30.180  26.100  34.790  1.00  0.00    -0.221 NA
ATOM     80  CE1 HIS     3      31.440  25.850  34.420  1.00  0.00     0.199 A 
ATOM     81  ND1 HIS     3      32.230  26.720  35.040  1.00  0.00    -0.227 NA
ENDBRANCH  76  77
ENDBRANCH  75  76
BRANCH  75  82
ATOM     82  N   HIS     3      32.710  30.770  37.360  1.00  0.00    -0.228 NA
ATOM     83  C   ALA     2      33.060  32.050  37.190  1.00  0.00     0.274 C 
ATOM     84  O   ALA     2      33.150  32.580  36.090  1.00  0.00    -0.268 OA
BRANCH  83  85
ATOM     85  CA  ALA     2      33.210  32.910  38.460  1.00  0.00     0.186 C 
ATOM     86  CB  ALA     2      34.490  32.510  39.200  1.00  0.00     0.037 C 
BRANCH  85  87
ATOM     87  N   ALA     2      32.080  32.920  39.430  1.00  0.00    -0.229 NA
ATOM     88  C   GLY     1      30.800  33.120  39.090  1.00  0.00     0.292 C 
ATOM     89  O   GLY     1      30.390  33.090  37.930  1.00  0.00    -0.268 OA
BRANCH  88  90
ATOM     90  CA  GLY     1      29.780  33.160  40.240  1.00  0.00     0.427 C 
ATOM     91  N   GLY     1      28.980  31.920  40.290  1.00  0.00     0.629 N 
ENDBRANCH  88  90
ENDBRANCH  85  87
ENDBRANCH  83  85
ENDBRANCH  75  82
ENDBRANCH  73  75
ENDBRANCH  67  72
ENDBRANCH   1  67
TORSDOF 41
