REMARK  32 active torsions:
REMARK  status: ('A' for Active; 'I' for Inactive)
REMARK    1  A    between atoms: CA_2  and  C_8 
REMARK    2  A    between atoms: CA_2  and  CB_3 
REMARK    3  A    between atoms: CB_3  and  CG_4 
REMARK    4  A    between atoms: CG_4  and  CD_5 
REMARK    5  A    between atoms: CD_5  and  CE_6 
REMARK       I    between atoms: C_8  and  N_10 
REMARK    6  A    between atoms: N_10  and  CA_11 
REMARK       I    between atoms: CA_11  and  C_16 
REMARK    7  A    between atoms: CA_11  and  CB_12 
REMARK    8  A    between atoms: CB_12  and  CG_13 
REMARK       I    between atoms: C_16  and  N_18 
REMARK       I    between atoms: N_18  and  CA_19 
REMARK    9  A    between atoms: CA_19  and  CB_20 
REMARK       I    between atoms: CA_19  and  C_24 
REMARK   10  A    between atoms: CB_20  and  CG_21 
REMARK       I    between atoms: C_24  and  N_26 
REMARK       I    between atoms: N_26  and  CA_27 
REMARK       I    between atoms: CA_27  and  C_33 
REMARK   11  A    between atoms: CA_27  and  CB_28 
REMARK   12  A    between atoms: CB_28  and  CG_29 
REMARK   13  A    between atoms: CG_29  and  CD_30 
REMARK   14  A    between atoms: CD_30  and  CE_31 
REMARK       I    between atoms: C_33  and  N_35 
REMARK       I    between atoms: N_35  and  CA_36 
REMARK       I    between atoms: CA_36  and  C_47 
REMARK   15  A    between atoms: CA_36  and  CB_37 
REMARK   16  A    between atoms: CB_37  and  CG_38 
REMARK       I    between atoms: C_47  and  N_49 
REMARK       I    between atoms: N_49  and  CA_50 
REMARK       I    between atoms: CA_50  and  C_61 
REMARK   17  A    between atoms: CA_50  and  CB_51 
REMARK   18  A    between atoms: CB_51  and  CG_52 
REMARK       I    between atoms: C_61  and  N_63 
REMARK       I    between atoms: N_63  and  CA_64 
REMARK       I    between atoms: CA_64  and  C_70 
REMARK   19  A    between atoms: CA_64  and  CB_65 
REMARK   20  A    between atoms: CB_65  and  CG_66 
REMARK   21  A    between atoms: CG_66  and  CD_67 
REMARK   22  A    between atoms: CD_67  and  CE_68 
REMARK       I    between atoms: C_70  and  N_72 
REMARK       I    between atoms: N_72  and  CA_73 
REMARK   23  A    between atoms: CA_73  and  CB_74 
REMARK       I    between atoms: CA_73  and  C_79 
REMARK   24  A    between atoms: CB_74  and  CG_75 
REMARK   25  A    between atoms: CG_75  and  CD_76 
REMARK   26  A    between atoms: CD_76  and  CE_77 
REMARK       I    between atoms: C_79  and  N_81 
REMARK       I    between atoms: N_81  and  CA_82 
REMARK   27  A    between atoms: CA_82  and  CB_83 
REMARK       I    between atoms: CA_82  and  C_87 
REMARK   28  A    between atoms: CB_83  and  CG_84 
REMARK       I    between atoms: C_87  and  N_89 
REMARK   29  A    between atoms: N_89  and  CA_90 
REMARK   30  A    between atoms: CA_90  and  CB_91 
REMARK   31  A    between atoms: CA_90  and  C_95 
REMARK   32  A    between atoms: CB_91  and  CG_92 
ROOT
ATOM      1  CA  LEU     2      28.200  27.890  34.360  1.00  0.00     0.186 C 
ATOM      2  C   LEU     2      28.340  29.180  33.520  1.00  0.00     0.274 C 
ATOM      3  O   LEU     2      28.800  29.080  32.380  1.00  0.00    -0.268 OA
ATOM      4  N   LEU     3      28.130  30.350  34.120  1.00  0.00    -0.229 NA
ATOM      5  CA  LEU     3      28.360  31.680  33.490  1.00  0.00     0.186 C 
ATOM      6  C   LEU     3      29.620  31.800  32.600  1.00  0.00     0.274 C 
ATOM      7  O   LEU     3      29.480  32.040  31.400  1.00  0.00    -0.268 OA
ATOM      8  N   LYS     4      30.770  31.340  33.100  1.00  0.00    -0.229 NA
ATOM      9  CA  LYS     4      32.050  31.360  32.350  1.00  0.00     0.186 C 
ATOM     10  C   LYS     4      32.090  30.420  31.130  1.00  0.00     0.274 C 
ATOM     11  O   LYS     4      32.780  30.710  30.160  1.00  0.00    -0.268 OA
ATOM     12  N   TRP     5      31.370  29.300  31.210  1.00  0.00    -0.228 NA
ATOM     13  CA  TRP     5      31.220  28.330  30.100  1.00  0.00     0.191 C 
ATOM     14  C   TRP     5      30.290  28.880  29.000  1.00  0.00     0.275 C 
ATOM     15  O   TRP     5      30.760  29.130  27.890  1.00  0.00    -0.268 OA
ATOM     16  N   TRP     6      29.130  29.380  29.430  1.00  0.00    -0.228 NA
ATOM     17  CA  TRP     6      28.130  30.050  28.570  1.00  0.00     0.191 C 
ATOM     18  C   TRP     6      28.700  31.270  27.810  1.00  0.00     0.275 C 
ATOM     19  O   TRP     6      28.740  31.260  26.590  1.00  0.00    -0.268 OA
ATOM     20  N   LYS     7      29.420  32.120  28.540  1.00  0.00    -0.229 NA
ATOM     21  CA  LYS     7      30.170  33.290  28.010  1.00  0.00     0.186 C 
ATOM     22  C   LYS     7      31.420  33.030  27.130  1.00  0.00     0.274 C 
ATOM     23  O   LYS     7      32.210  33.950  26.930  1.00  0.00    -0.268 OA
ATOM     24  N   LYS     8      31.760  31.750  26.990  1.00  0.00    -0.229 NA
ATOM     25  CA  LYS     8      32.840  31.280  26.090  1.00  0.00     0.186 C 
ATOM     26  C   LYS     8      32.300  30.450  24.890  1.00  0.00     0.274 C 
ATOM     27  O   LYS     8      33.080  30.060  24.020  1.00  0.00    -0.268 OA
ATOM     28  N   LEU     9      31.120  29.860  25.080  1.00  0.00    -0.229 NA
ATOM     29  CA  LEU     9      30.360  29.150  24.030  1.00  0.00     0.186 C 
ATOM     30  C   LEU     9      29.640  30.120  23.060  1.00  0.00     0.274 C 
ATOM     31  O   LEU     9      29.430  29.780  21.900  1.00  0.00    -0.268 OA
ATOM     32  N   LEU    10      29.140  31.220  23.630  1.00  0.00    -0.227 NA
ENDROOT
BRANCH  17  33
ATOM     33  CB  TRP     6      26.930  30.410  29.450  1.00  0.00     0.062 C 
BRANCH  33  34
ATOM     34  CG  TRP     6      25.750  31.030  28.680  1.00  0.00     0.001 A 
ATOM     35  CD2 TRP     6      24.820  30.350  27.900  1.00  0.00     0.015 A 
ATOM     36  CE3 TRP     6      24.740  29.050  27.430  1.00  0.00     0.001 A 
ATOM     37  CE2 TRP     6      23.910  31.300  27.470  1.00  0.00     0.081 A 
ATOM     38  CZ3 TRP     6      23.750  28.700  26.510  1.00  0.00     0.000 A 
ATOM     39  CH2 TRP     6      22.840  29.660  26.070  1.00  0.00     0.002 A 
ATOM     40  CZ2 TRP     6      22.920  30.950  26.560  1.00  0.00     0.019 A 
ATOM     41  NE1 TRP     6      24.290  32.470  27.970  1.00  0.00    -0.244 NA
ATOM     42  CD1 TRP     6      25.390  32.310  28.700  1.00  0.00     0.095 A 
ENDBRANCH  33  34
ENDBRANCH  17  33
BRANCH  13  43
ATOM     43  CB  TRP     5      30.710  27.000  30.690  1.00  0.00     0.062 C 
BRANCH  43  44
ATOM     44  CG  TRP     5      30.470  25.910  29.640  1.00  0.00     0.001 A 
ATOM     45  CD2 TRP     5      29.250  25.580  29.060  1.00  0.00     0.015 A 
ATOM     46  CE2 TRP     5      29.530  24.630  28.080  1.00  0.00     0.081 A 
ATOM     47  CE3 TRP     5      27.950  26.010  29.250  1.00  0.00     0.001 A 
ATOM     48  NE1 TRP     5      30.850  24.430  28.080  1.00  0.00    -0.244 NA
ATOM     49  CZ2 TRP     5      28.510  24.110  27.300  1.00  0.00     0.019 A 
ATOM     50  CD1 TRP     5      31.410  25.190  29.030  1.00  0.00     0.095 A 
ATOM     51  CH2 TRP     5      27.200  24.540  27.490  1.00  0.00     0.002 A 
ATOM     52  CZ3 TRP     5      26.920  25.490  28.460  1.00  0.00     0.000 A 
ENDBRANCH  43  44
ENDBRANCH  13  43
BRANCH  21  53
ATOM     53  CB  LYS     7      30.550  34.210  29.180  1.00  0.00     0.034 C 
BRANCH  53  54
ATOM     54  CG  LYS     7      29.360  34.970  29.760  1.00  0.00     0.005 C 
BRANCH  54  55
ATOM     55  CD  LYS     7      28.780  35.950  28.740  1.00  0.00     0.041 C 
BRANCH  55  56
ATOM     56  CE  LYS     7      27.610  36.730  29.320  1.00  0.00     0.338 C 
ATOM     57  NZ  LYS     7      27.060  37.630  28.290  1.00  0.00     0.618 N 
ENDBRANCH  55  56
ENDBRANCH  54  55
ENDBRANCH  53  54
ENDBRANCH  21  53
BRANCH   9  58
ATOM     58  CB  LYS     4      33.260  31.070  33.260  1.00  0.00     0.034 C 
BRANCH  58  59
ATOM     59  CG  LYS     4      33.640  32.260  34.150  1.00  0.00     0.005 C 
BRANCH  59  60
ATOM     60  CD  LYS     4      34.990  32.040  34.840  1.00  0.00     0.041 C 
BRANCH  60  61
ATOM     61  CE  LYS     4      35.420  33.270  35.650  1.00  0.00     0.338 C 
ATOM     62  NZ  LYS     4      36.760  33.140  36.260  1.00  0.00     0.618 N 
ENDBRANCH  60  61
ENDBRANCH  59  60
ENDBRANCH  58  59
ENDBRANCH   9  58
BRANCH  25  63
ATOM     63  CB  LYS     8      33.820  30.450  26.930  1.00  0.00     0.034 C 
BRANCH  63  64
ATOM     64  CG  LYS     8      35.160  30.290  26.230  1.00  0.00     0.005 C 
BRANCH  64  65
ATOM     65  CD  LYS     8      35.990  29.150  26.820  1.00  0.00     0.041 C 
BRANCH  65  66
ATOM     66  CE  LYS     8      37.130  28.840  25.850  1.00  0.00     0.338 C 
ATOM     67  NZ  LYS     8      37.950  27.730  26.340  1.00  0.00     0.618 N 
ENDBRANCH  65  66
ENDBRANCH  64  65
ENDBRANCH  63  64
ENDBRANCH  25  63
BRANCH   5  68
ATOM     68  CB  LEU     3      28.360  32.750  34.580  1.00  0.00     0.034 C 
BRANCH  68  69
ATOM     69  CG  LEU     3      28.360  34.200  34.060  1.00  0.00     0.002 C 
ATOM     70  CD1 LEU     3      27.050  34.520  33.330  1.00  0.00     0.000 C 
ATOM     71  CD2 LEU     3      28.600  35.180  35.200  1.00  0.00     0.000 C 
ENDBRANCH  68  69
ENDBRANCH   5  68
BRANCH  29  72
ATOM     72  CB  LEU     9      29.350  28.240  24.740  1.00  0.00     0.034 C 
BRANCH  72  73
ATOM     73  CG  LEU     9      28.730  27.160  23.850  1.00  0.00     0.002 C 
ATOM     74  CD2 LEU     9      27.490  26.570  24.530  1.00  0.00     0.000 C 
ATOM     75  CD1 LEU     9      29.750  26.080  23.500  1.00  0.00     0.000 C 
ENDBRANCH  72  73
ENDBRANCH  29  72
BRANCH   1  76
ATOM     76  CB  LEU     2      26.770  27.700  34.900  1.00  0.00     0.034 C 
BRANCH  76  77
ATOM     77  CG  LEU     2      25.700  27.570  33.800  1.00  0.00     0.002 C 
ATOM     78  CD1 LEU     2      25.940  26.330  32.930  1.00  0.00     0.000 C 
ATOM     79  CD2 LEU     2      24.310  27.530  34.430  1.00  0.00     0.000 C 
ENDBRANCH  76  77
ENDBRANCH   1  76
BRANCH   1  80
ATOM     80  N   LEU     2      29.170  27.630  35.460  1.00  0.00    -0.229 NA
ATOM     81  C   LYS     1      30.400  28.150  35.580  1.00  0.00     0.289 C 
ATOM     82  O   LYS     1      30.780  29.150  34.990  1.00  0.00    -0.268 OA
BRANCH  81  83
ATOM     83  CA  LYS     1      31.260  27.740  36.790  1.00  0.00     0.381 C 
ATOM     84  N   LYS     1      30.860  28.520  37.970  1.00  0.00     0.626 N 
BRANCH  83  85
ATOM     85  CB  LYS     1      31.280  26.220  37.080  1.00  0.00     0.049 C 
BRANCH  85  86
ATOM     86  CG  LYS     1      32.090  25.420  36.050  1.00  0.00     0.005 C 
BRANCH  86  87
ATOM     87  CD  LYS     1      32.310  23.960  36.480  1.00  0.00     0.041 C 
BRANCH  87  88
ATOM     88  CE  LYS     1      33.110  23.140  35.460  1.00  0.00     0.338 C 
ATOM     89  NZ  LYS     1      33.390  21.750  35.890  1.00  0.00     0.618 N 
ENDBRANCH  87  88
ENDBRANCH  86  87
ENDBRANCH  85  86
ENDBRANCH  83  85
ENDBRANCH  81  83
ENDBRANCH   1  80
BRANCH  32  90
ATOM     90  CA  LEU    10      28.520  32.360  22.930  1.00  0.00     0.193 C 
BRANCH  90  91
ATOM     91  CB  LEU    10      27.510  33.060  23.860  1.00  0.00     0.035 C 
BRANCH  91  92
ATOM     92  CG  LEU    10      26.090  32.500  23.850  1.00  0.00     0.003 C 
ATOM     93  CD1 LEU    10      26.010  31.080  24.420  1.00  0.00     0.000 C 
ATOM     94  CD2 LEU    10      25.190  33.450  24.650  1.00  0.00     0.000 C 
ENDBRANCH  91  92
ENDBRANCH  90  91
BRANCH  90  95
ATOM     95  C   LEU    10      29.580  33.420  22.580  1.00  0.00     0.209 C 
ATOM     96  O2  LEU    10      29.330  34.140  21.590  1.00  0.00    -0.646 OA
ATOM     97  O1  LEU    10      30.460  33.640  23.440  1.00  0.00    -0.646 OA
ENDBRANCH  90  95
ENDBRANCH  32  90
TORSDOF 47
