REMARK  22 active torsions:
REMARK  status: ('A' for Active; 'I' for Inactive)
REMARK    1  A    between atoms: N_1  and  CA_2 
REMARK    2  A    between atoms: CA_2  and  C_3 
REMARK    3  A    between atoms: CA_2  and  CB_5 
REMARK       I    between atoms: C_3  and  N_11 
REMARK    4  A    between atoms: CB_5  and  CG1_6 
REMARK    5  A    between atoms: N_11  and  CA_12 
REMARK    6  A    between atoms: CA_12  and  C_13 
REMARK    7  A    between atoms: CA_12  and  CB_15 
REMARK       I    between atoms: C_13  and  N_28 
REMARK    8  A    between atoms: CB_15  and  CG_16 
REMARK    9  A    between atoms: CG_16  and  CD_17 
REMARK   10  A    between atoms: CD_17  and  NE_18 
REMARK       I    between atoms: NE_18  and  CZ_20 
REMARK       I    between atoms: CZ_20  and  NH1_21 
REMARK   11  A    between atoms: N_28  and  CA_29 
REMARK   12  A    between atoms: CA_29  and  C_30 
REMARK   13  A    between atoms: CA_29  and  CB_32 
REMARK       I    between atoms: C_30  and  N_37 
REMARK   14  A    between atoms: CB_32  and  CG1_33 
REMARK   15  A    between atoms: N_37  and  CA_38 
REMARK   16  A    between atoms: CA_38  and  C_39 
REMARK   17  A    between atoms: CA_38  and  CB_41 
REMARK   18  A    between atoms: C_39  and  OXT_49 
REMARK   19  A    between atoms: CB_41  and  CG_42 
REMARK   20  A    between atoms: CG_42  and  CD_43 
REMARK   21  A    between atoms: CD_43  and  CE_44 
REMARK   22  A    between atoms: CE_44  and  NZ_45 
ROOT
ATOM      1  CA  ARG A   2       4.266  -1.840   3.358  1.00  0.00     0.176 C 
ENDROOT
BRANCH   1   2
ATOM      2  N   ARG A   2       4.289  -3.069   2.569  1.00  0.00    -0.346 N 
ATOM      3  C   ILE A   1       3.150  -3.559   2.060  1.00  0.00     0.240 C 
ATOM      4  O   ILE A   1       2.120  -2.929   2.293  1.00  0.00    -0.271 OA
ATOM      5  H   ARG A   2       5.113  -3.659   2.651  1.00  0.00     0.163 HD
BRANCH   3   6
ATOM      6  CA  ILE A   1       3.174  -4.855   1.228  1.00  0.00     0.171 C 
BRANCH   6   7
ATOM      7  N   ILE A   1       1.795  -5.119   0.825  1.00  0.00    -0.418 N 
ATOM      8  HN  ILE A   1       1.588  -5.892   0.199  1.00  0.00     0.150 HD
ATOM      9  H   ILE A   1       1.170  -4.321   0.766  1.00  0.00     0.150 HD
ENDBRANCH   6   7
BRANCH   6  10
ATOM     10  CB  ILE A   1       4.130  -4.801   0.007  1.00  0.00     0.012 C 
ATOM     11  CG2 ILE A   1       3.753  -3.682  -0.975  1.00  0.00     0.012 C 
BRANCH  10  12
ATOM     12  CG1 ILE A   1       5.606  -4.693   0.443  1.00  0.00     0.002 C 
ATOM     13  CD1 ILE A   1       6.592  -4.993  -0.679  1.00  0.00     0.005 C 
ENDBRANCH  10  12
ENDBRANCH   6  10
ENDBRANCH   3   6
ENDBRANCH   1   2
BRANCH   1  14
ATOM     14  C   ARG A   2       5.723  -1.570   3.778  1.00  0.00     0.241 C 
ATOM     15  O   ARG A   2       6.657  -2.305   3.462  1.00  0.00    -0.271 OA
ATOM     16  N   ILE A   3       6.016  -0.494   4.522  1.00  0.00    -0.346 N 
ATOM     17  H   ILE A   3       5.395   0.307   4.465  1.00  0.00     0.163 HD
BRANCH  16  18
ATOM     18  CA  ILE A   3       7.398  -0.238   4.921  1.00  0.00     0.180 C 
BRANCH  18  19
ATOM     19  C   ILE A   3       7.383   1.058   5.754  1.00  0.00     0.241 C 
ATOM     20  O   ILE A   3       6.357   1.694   5.990  1.00  0.00    -0.271 OA
ATOM     21  N   LYS A   4       8.525   1.542   6.260  1.00  0.00    -0.345 N 
ATOM     22  H   LYS A   4       9.274   0.880   6.443  1.00  0.00     0.163 HD
BRANCH  21  23
ATOM     23  CA  LYS A   4       8.512   2.770   7.049  1.00  0.00     0.182 C 
BRANCH  23  24
ATOM     24  C   LYS A   4       9.968   3.033   7.465  1.00  0.00     0.163 C 
ATOM     25  O   LYS A   4      10.903   2.298   7.149  1.00  0.00    -0.648 OA
BRANCH  24  26
ATOM     26  OXT LYS A   4      10.198   4.134   8.214  1.00  0.00    -0.775 OA
ATOM     27  HO  LYS A   4       9.390   4.770   8.487  1.00  0.00     0.167 HD
ENDBRANCH  24  26
ENDBRANCH  23  24
BRANCH  23  28
ATOM     28  CB  LYS A   4       7.583   2.615   8.261  1.00  0.00     0.036 C 
BRANCH  28  29
ATOM     29  CG  LYS A   4       7.404   3.902   9.072  1.00  0.00     0.004 C 
BRANCH  29  30
ATOM     30  CD  LYS A   4       6.328   3.734  10.149  1.00  0.00     0.030 C 
BRANCH  30  31
ATOM     31  CE  LYS A   4       6.214   4.986  11.018  1.00  0.00     0.267 C 
BRANCH  31  32
ATOM     32  NZ  LYS A   4       5.163   4.818  12.013  1.00  0.00     0.078 N 
ATOM     33  HZ1 LYS A   4       5.142   5.631  12.627  1.00  0.00     0.312 HD
ATOM     34  HZ2 LYS A   4       5.373   4.016  12.606  1.00  0.00     0.312 HD
ENDBRANCH  31  32
ENDBRANCH  30  31
ENDBRANCH  29  30
ENDBRANCH  28  29
ENDBRANCH  23  28
ENDBRANCH  21  23
ENDBRANCH  18  19
BRANCH  18  35
ATOM     35  CB  ILE A   3       8.350  -0.187   3.698  1.00  0.00     0.013 C 
ATOM     36  CG2 ILE A   3       7.976   0.934   2.717  1.00  0.00     0.012 C 
BRANCH  35  37
ATOM     37  CG1 ILE A   3       9.828  -0.087   4.128  1.00  0.00     0.002 C 
ATOM     38  CD1 ILE A   3      10.809  -0.391   3.003  1.00  0.00     0.005 C 
ENDBRANCH  35  37
ENDBRANCH  18  35
ENDBRANCH  16  18
ENDBRANCH   1  14
BRANCH   1  39
ATOM     39  CB  ARG A   2       3.337  -1.995   4.570  1.00  0.00     0.036 C 
BRANCH  39  40
ATOM     40  CG  ARG A   2       2.980  -0.663   5.231  1.00  0.00     0.023 C 
BRANCH  40  41
ATOM     41  CD  ARG A   2       1.895  -0.838   6.289  1.00  0.00     0.138 C 
BRANCH  41  42
ATOM     42  NE  ARG A   2       1.642   0.466   6.904  1.00  0.00    -0.227 N 
ATOM     43  HE  ARG A   2       2.450   1.028   7.158  1.00  0.00     0.177 HD
ATOM     44  CZ  ARG A   2       0.417   0.977   7.184  1.00  0.00     0.665 C 
ATOM     45  NH1 ARG A   2       0.095   2.115   7.737  1.00  0.00    -0.235 N 
ATOM     46  NH2 ARG A   2      -0.732   0.473   6.998  1.00  0.00    -0.235 N 
ATOM     47  HH1 ARG A   2      -0.563   2.817   8.100  1.00  0.00     0.174 HD
ATOM     48 1HH1 ARG A   2       0.830   2.776   8.021  1.00  0.00     0.174 HD
ATOM     49 1HH2 ARG A   2      -0.852  -0.438   6.594  1.00  0.00     0.174 HD
ATOM     50 2HH2 ARG A   2      -1.531   1.022   7.277  1.00  0.00     0.174 HD
ENDBRANCH  41  42
ENDBRANCH  40  41
ENDBRANCH  39  40
ENDBRANCH   1  39
TORSDOF 22
