REMARK  32 active torsions:
REMARK  status: ('A' for Active; 'I' for Inactive)
REMARK    1  A    between atoms: CA_2  and  C_3 
REMARK       I    between atoms: C_3  and  N_5 
REMARK    2  A    between atoms: N_5  and  CA_6 
REMARK    3  A    between atoms: CA_6  and  CB_7 
REMARK    4  A    between atoms: CA_6  and  C_11 
REMARK    5  A    between atoms: CB_7  and  CG_8 
REMARK       I    between atoms: C_11  and  N_13 
REMARK    6  A    between atoms: N_13  and  CA_14 
REMARK       I    between atoms: CA_14  and  C_19 
REMARK    7  A    between atoms: CA_14  and  CB_15 
REMARK    8  A    between atoms: CB_15  and  CG_16 
REMARK       I    between atoms: C_19  and  N_21 
REMARK       I    between atoms: N_21  and  CA_22 
REMARK       I    between atoms: CA_22  and  C_28 
REMARK    9  A    between atoms: CA_22  and  CB_23 
REMARK   10  A    between atoms: CB_23  and  CG_24 
REMARK   11  A    between atoms: CG_24  and  CD_25 
REMARK   12  A    between atoms: CD_25  and  CE_26 
REMARK       I    between atoms: C_28  and  N_30 
REMARK       I    between atoms: N_30  and  CA_31 
REMARK   13  A    between atoms: CA_31  and  CB_32 
REMARK       I    between atoms: CA_31  and  C_39 
REMARK   14  A    between atoms: CB_32  and  CG_33 
REMARK       I    between atoms: C_39  and  N_41 
REMARK       I    between atoms: N_41  and  CA_42 
REMARK       I    between atoms: CA_42  and  C_47 
REMARK   15  A    between atoms: CA_42  and  CB_43 
REMARK   16  A    between atoms: CB_43  and  CG1_44 
REMARK       I    between atoms: C_47  and  N_49 
REMARK       I    between atoms: N_49  and  CA_50 
REMARK   17  A    between atoms: CA_50  and  CB_51 
REMARK       I    between atoms: CA_50  and  C_56 
REMARK   18  A    between atoms: CB_51  and  CG_52 
REMARK   19  A    between atoms: CG_52  and  CD_53 
REMARK   20  A    between atoms: CD_53  and  CE_54 
REMARK       I    between atoms: C_56  and  N_58 
REMARK       I    between atoms: N_58  and  CA_59 
REMARK   21  A    between atoms: CA_59  and  CB_60 
REMARK       I    between atoms: CA_59  and  C_65 
REMARK   22  A    between atoms: CB_60  and  CG_61 
REMARK   23  A    between atoms: CG_61  and  CD_62 
REMARK   24  A    between atoms: CD_62  and  CE_63 
REMARK       I    between atoms: C_65  and  N_67 
REMARK   25  A    between atoms: N_67  and  CA_68 
REMARK   26  A    between atoms: CA_68  and  C_73 
REMARK   27  A    between atoms: CA_68  and  CB_69 
REMARK   28  A    between atoms: CB_69  and  CG_70 
REMARK       I    between atoms: C_73  and  N_75 
REMARK   29  A    between atoms: N_75  and  CA_76 
REMARK   30  A    between atoms: CA_76  and  C_81 
REMARK   31  A    between atoms: CA_76  and  CB_77 
REMARK   32  A    between atoms: CB_77  and  CG_78 
ROOT
ATOM      1  CA  LEU     3      29.630  25.730  32.020  1.00  0.00     0.186 C 
ATOM      2  C   LEU     3      28.550  26.290  31.060  1.00  0.00     0.274 C 
ATOM      3  O   LEU     3      28.820  26.390  29.860  1.00  0.00    -0.268 OA
ATOM      4  N   LYS     4      27.490  26.880  31.610  1.00  0.00    -0.229 NA
ATOM      5  CA  LYS     4      26.400  27.500  30.810  1.00  0.00     0.186 C 
ATOM      6  C   LYS     4      26.840  28.710  29.960  1.00  0.00     0.274 C 
ATOM      7  O   LYS     4      26.360  28.880  28.850  1.00  0.00    -0.268 OA
ATOM      8  N   PHE     5      27.790  29.490  30.480  1.00  0.00    -0.228 NA
ATOM      9  CA  PHE     5      28.370  30.650  29.780  1.00  0.00     0.191 C 
ATOM     10  C   PHE     5      29.300  30.200  28.640  1.00  0.00     0.275 C 
ATOM     11  O   PHE     5      29.010  30.480  27.490  1.00  0.00    -0.268 OA
ATOM     12  N   ILE     6      30.200  29.250  28.960  1.00  0.00    -0.229 NA
ATOM     13  CA  ILE     6      31.110  28.620  27.970  1.00  0.00     0.186 C 
ATOM     14  C   ILE     6      30.330  27.970  26.800  1.00  0.00     0.274 C 
ATOM     15  O   ILE     6      30.520  28.370  25.660  1.00  0.00    -0.268 OA
ATOM     16  N   LYS     7      29.290  27.200  27.130  1.00  0.00    -0.229 NA
ATOM     17  CA  LYS     7      28.380  26.560  26.150  1.00  0.00     0.186 C 
ATOM     18  C   LYS     7      27.410  27.460  25.350  1.00  0.00     0.274 C 
ATOM     19  O   LYS     7      26.420  26.960  24.820  1.00  0.00    -0.268 OA
ATOM     20  N   LYS     8      27.500  28.760  25.610  1.00  0.00    -0.229 NA
ATOM     21  CA  LYS     8      26.800  29.820  24.840  1.00  0.00     0.186 C 
ATOM     22  C   LYS     8      27.770  30.760  24.080  1.00  0.00     0.274 C 
ATOM     23  O   LYS     8      27.320  31.640  23.340  1.00  0.00    -0.268 OA
ATOM     24  N   LEU     9      29.000  30.830  24.560  1.00  0.00    -0.229 NA
ENDROOT
BRANCH  13  25
ATOM     25  CB  ILE     6      32.040  27.600  28.670  1.00  0.00     0.032 C 
ATOM     26  CG2 ILE     6      32.940  26.870  27.660  1.00  0.00     0.003 C 
BRANCH  25  27
ATOM     27  CG1 ILE     6      32.900  28.300  29.730  1.00  0.00     0.002 C 
ATOM     28  CD  ILE     6      33.730  27.310  30.550  1.00  0.00     0.000 C 
ENDBRANCH  25  27
ENDBRANCH  13  25
BRANCH  17  29
ATOM     29  CB  LYS     7      27.590  25.440  26.860  1.00  0.00     0.034 C 
BRANCH  29  30
ATOM     30  CG  LYS     7      28.460  24.230  27.210  1.00  0.00     0.005 C 
BRANCH  30  31
ATOM     31  CD  LYS     7      28.980  23.550  25.950  1.00  0.00     0.041 C 
BRANCH  31  32
ATOM     32  CE  LYS     7      29.840  22.330  26.280  1.00  0.00     0.338 C 
ATOM     33  NZ  LYS     7      30.370  21.750  25.040  1.00  0.00     0.618 N 
ENDBRANCH  31  32
ENDBRANCH  30  31
ENDBRANCH  29  30
ENDBRANCH  17  29
BRANCH   9  34
ATOM     34  CB  PHE     5      29.100  31.530  30.810  1.00  0.00     0.060 C 
BRANCH  34  35
ATOM     35  CG  PHE     5      29.800  32.750  30.200  1.00  0.00    -0.020 A 
ATOM     36  CD1 PHE     5      29.070  33.890  29.870  1.00  0.00    -0.004 A 
ATOM     37  CE1 PHE     5      29.710  34.980  29.300  1.00  0.00    -0.000 A 
ATOM     38  CZ  PHE     5      31.070  34.940  29.060  1.00  0.00    -0.000 A 
ATOM     39  CE2 PHE     5      31.810  33.810  29.410  1.00  0.00    -0.000 A 
ATOM     40  CD2 PHE     5      31.170  32.720  29.980  1.00  0.00    -0.004 A 
ENDBRANCH  34  35
ENDBRANCH   9  34
BRANCH  21  41
ATOM     41  CB  LYS     8      25.940  30.600  25.840  1.00  0.00     0.034 C 
BRANCH  41  42
ATOM     42  CG  LYS     8      24.860  31.430  25.140  1.00  0.00     0.005 C 
BRANCH  42  43
ATOM     43  CD  LYS     8      24.270  32.490  26.070  1.00  0.00     0.041 C 
BRANCH  43  44
ATOM     44  CE  LYS     8      23.440  33.470  25.240  1.00  0.00     0.338 C 
ATOM     45  NZ  LYS     8      22.910  34.550  26.070  1.00  0.00     0.618 N 
ENDBRANCH  43  44
ENDBRANCH  42  43
ENDBRANCH  41  42
ENDBRANCH  21  41
BRANCH   5  46
ATOM     46  CB  LYS     4      25.180  27.870  31.660  1.00  0.00     0.034 C 
BRANCH  46  47
ATOM     47  CG  LYS     4      24.320  26.640  32.000  1.00  0.00     0.005 C 
BRANCH  47  48
ATOM     48  CD  LYS     4      22.970  27.050  32.610  1.00  0.00     0.041 C 
BRANCH  48  49
ATOM     49  CE  LYS     4      22.080  25.830  32.870  1.00  0.00     0.338 C 
ATOM     50  NZ  LYS     4      20.740  26.190  33.360  1.00  0.00     0.618 N 
ENDBRANCH  48  49
ENDBRANCH  47  48
ENDBRANCH  46  47
ENDBRANCH   5  46
BRANCH  24  51
ATOM     51  CA  LEU     9      30.130  31.570  23.950  1.00  0.00     0.186 C 
BRANCH  51  52
ATOM     52  C   LEU     9      30.830  30.780  22.810  1.00  0.00     0.274 C 
ATOM     53  N   LEU    10      30.880  29.460  22.970  1.00  0.00    -0.227 NA
ATOM     54  O   LEU     9      31.420  31.400  21.920  1.00  0.00    -0.268 OA
BRANCH  53  55
ATOM     55  CA  LEU    10      31.340  28.490  21.950  1.00  0.00     0.193 C 
BRANCH  55  56
ATOM     56  C   LEU    10      30.130  27.960  21.180  1.00  0.00     0.209 C 
ATOM     57  O1  LEU    10      29.100  27.700  21.860  1.00  0.00    -0.646 OA
ATOM     58  O2  LEU    10      30.330  27.590  20.000  1.00  0.00    -0.646 OA
ENDBRANCH  55  56
BRANCH  55  59
ATOM     59  CB  LEU    10      31.970  27.250  22.600  1.00  0.00     0.035 C 
BRANCH  59  60
ATOM     60  CG  LEU    10      33.220  27.470  23.460  1.00  0.00     0.003 C 
ATOM     61  CD2 LEU    10      34.390  28.000  22.640  1.00  0.00     0.000 C 
ATOM     62  CD1 LEU    10      33.590  26.130  24.100  1.00  0.00     0.000 C 
ENDBRANCH  59  60
ENDBRANCH  55  59
ENDBRANCH  53  55
ENDBRANCH  51  52
BRANCH  51  63
ATOM     63  CB  LEU     9      31.100  31.910  25.080  1.00  0.00     0.034 C 
BRANCH  63  64
ATOM     64  CG  LEU     9      32.130  33.000  24.760  1.00  0.00     0.002 C 
ATOM     65  CD2 LEU     9      33.160  33.100  25.890  1.00  0.00     0.000 C 
ATOM     66  CD1 LEU     9      31.460  34.350  24.520  1.00  0.00     0.000 C 
ENDBRANCH  63  64
ENDBRANCH  51  63
ENDBRANCH  24  51
BRANCH   1  67
ATOM     67  CB  LEU     3      29.170  24.410  32.650  1.00  0.00     0.034 C 
BRANCH  67  68
ATOM     68  CG  LEU     3      28.880  23.290  31.640  1.00  0.00     0.002 C 
ATOM     69  CD2 LEU     3      28.190  22.120  32.330  1.00  0.00     0.000 C 
ATOM     70  CD1 LEU     3      30.160  22.840  30.930  1.00  0.00     0.000 C 
ENDBRANCH  67  68
ENDBRANCH   1  67
BRANCH   1  71
ATOM     71  N   LEU     3      30.080  26.640  33.100  1.00  0.00    -0.229 NA
ATOM     72  C   LEU     2      30.260  27.960  32.970  1.00  0.00     0.274 C 
ATOM     73  O   LEU     2      30.030  28.570  31.930  1.00  0.00    -0.268 OA
BRANCH  72  74
ATOM     74  CA  LEU     2      30.640  28.780  34.230  1.00  0.00     0.186 C 
BRANCH  74  75
ATOM     75  CB  LEU     2      31.890  28.240  34.940  1.00  0.00     0.034 C 
BRANCH  75  76
ATOM     76  CG  LEU     2      33.190  28.480  34.170  1.00  0.00     0.002 C 
ATOM     77  CD2 LEU     2      34.360  27.810  34.890  1.00  0.00     0.000 C 
ATOM     78  CD1 LEU     2      33.470  29.980  33.970  1.00  0.00     0.000 C 
ENDBRANCH  75  76
ENDBRANCH  74  75
BRANCH  74  79
ATOM     79  N   LEU     2      29.620  29.060  35.260  1.00  0.00    -0.229 NA
ATOM     80  C   GLY     1      28.320  28.730  35.260  1.00  0.00     0.292 C 
ATOM     81  O   GLY     1      27.780  27.920  34.510  1.00  0.00    -0.268 OA
BRANCH  80  82
ATOM     82  CA  GLY     1      27.560  29.140  36.530  1.00  0.00     0.427 C 
ATOM     83  N   GLY     1      27.000  27.930  37.150  1.00  0.00     0.629 N 
ENDBRANCH  80  82
ENDBRANCH  74  79
ENDBRANCH  72  74
ENDBRANCH   1  71
TORSDOF 43
