REMARK  32 active torsions:
REMARK  status: ('A' for Active; 'I' for Inactive)
REMARK    1  A    between atoms: CA_2  and  C_9 
REMARK    2  A    between atoms: CA_2  and  CB_3 
REMARK    3  A    between atoms: CB_3  and  CG_4 
REMARK       I    between atoms: C_9  and  N_11 
REMARK    4  A    between atoms: N_11  and  CA_12 
REMARK    5  A    between atoms: CA_12  and  CB_13 
REMARK    6  A    between atoms: CA_12  and  C_20 
REMARK    7  A    between atoms: CB_13  and  CG_14 
REMARK    8  A    between atoms: CG_14  and  CD_15 
REMARK    9  A    between atoms: CD_15  and  NE_16 
REMARK       I    between atoms: C_20  and  N_22 
REMARK       I    between atoms: N_22  and  CA_23 
REMARK   10  A    between atoms: CA_23  and  CB_24 
REMARK       I    between atoms: CA_23  and  C_34 
REMARK   11  A    between atoms: CB_24  and  CG_25 
REMARK       I    between atoms: C_34  and  N_36 
REMARK       I    between atoms: N_36  and  CA_37 
REMARK       I    between atoms: CA_37  and  C_48 
REMARK   12  A    between atoms: CA_37  and  CB_38 
REMARK   13  A    between atoms: CB_38  and  CG_39 
REMARK       I    between atoms: C_48  and  N_50 
REMARK       I    between atoms: N_50  and  CA_51 
REMARK   14  A    between atoms: CA_51  and  CB_52 
REMARK       I    between atoms: CA_51  and  C_59 
REMARK   15  A    between atoms: CB_52  and  CG_53 
REMARK   16  A    between atoms: CG_53  and  CD_54 
REMARK   17  A    between atoms: CD_54  and  NE_55 
REMARK       I    between atoms: C_59  and  N_61 
REMARK       I    between atoms: N_61  and  CA_62 
REMARK       I    between atoms: CA_62  and  C_73 
REMARK   18  A    between atoms: CA_62  and  CB_63 
REMARK   19  A    between atoms: CB_63  and  CG_64 
REMARK       I    between atoms: C_73  and  N_75 
REMARK       I    between atoms: N_75  and  CA_76 
REMARK       I    between atoms: CA_76  and  C_87 
REMARK   20  A    between atoms: CA_76  and  CB_77 
REMARK   21  A    between atoms: CB_77  and  CG_78 
REMARK       I    between atoms: C_87  and  N_89 
REMARK       I    between atoms: N_89  and  CA_90 
REMARK   22  A    between atoms: CA_90  and  CB_91 
REMARK   23  A    between atoms: CA_90  and  C_98 
REMARK   24  A    between atoms: CB_91  and  CG_92 
REMARK   25  A    between atoms: CG_92  and  CD_93 
REMARK   26  A    between atoms: CD_93  and  NE_94 
REMARK       I    between atoms: C_98  and  N_100 
REMARK   27  A    between atoms: N_100  and  CA_101 
REMARK   28  A    between atoms: CA_101  and  C_109 
REMARK   29  A    between atoms: CA_101  and  CB_102 
REMARK   30  A    between atoms: CB_102  and  CG_103 
REMARK   31  A    between atoms: CG_103  and  CD_104 
REMARK   32  A    between atoms: CD_104  and  NE_105 
ROOT
ATOM      1  C   ARG     2      27.530  31.880  32.380  1.00  0.00     0.274 C 
ATOM      2  O   ARG     2      27.900  30.720  32.270  1.00  0.00    -0.268 OA
ATOM      3  N   TRP     3      26.770  32.550  31.510  1.00  0.00    -0.228 NA
ATOM      4  CA  TRP     3      26.350  32.060  30.170  1.00  0.00     0.191 C 
ATOM      5  C   TRP     3      27.440  31.350  29.360  1.00  0.00     0.275 C 
ATOM      6  O   TRP     3      27.400  30.130  29.230  1.00  0.00    -0.268 OA
ATOM      7  N   TRP     4      28.460  32.080  28.920  1.00  0.00    -0.228 NA
ATOM      8  CA  TRP     4      29.680  31.510  28.280  1.00  0.00     0.191 C 
ATOM      9  C   TRP     4      30.290  30.270  28.960  1.00  0.00     0.275 C 
ATOM     10  O   TRP     4      30.440  29.230  28.330  1.00  0.00    -0.268 OA
ATOM     11  N   ARG     5      30.390  30.300  30.290  1.00  0.00    -0.229 NA
ATOM     12  CA  ARG     5      30.810  29.140  31.130  1.00  0.00     0.186 C 
ATOM     13  C   ARG     5      29.850  27.940  31.250  1.00  0.00     0.274 C 
ATOM     14  O   ARG     5      30.020  27.130  32.170  1.00  0.00    -0.268 OA
ATOM     15  N   TRP     6      28.680  28.080  30.630  1.00  0.00    -0.228 NA
ATOM     16  CA  TRP     6      27.690  27.000  30.450  1.00  0.00     0.191 C 
ATOM     17  C   TRP     6      27.580  26.560  28.970  1.00  0.00     0.275 C 
ATOM     18  O   TRP     6      27.570  25.370  28.700  1.00  0.00    -0.268 OA
ATOM     19  N   TRP     7      27.630  27.520  28.040  1.00  0.00    -0.228 NA
ATOM     20  CA  TRP     7      27.730  27.270  26.580  1.00  0.00     0.191 C 
ATOM     21  C   TRP     7      29.030  26.560  26.130  1.00  0.00     0.275 C 
ATOM     22  O   TRP     7      29.100  25.930  25.090  1.00  0.00    -0.268 OA
ATOM     23  N   ARG     8      30.120  26.870  26.840  1.00  0.00    -0.229 NA
ATOM     24  CA  ARG     8      31.450  26.240  26.620  1.00  0.00     0.186 C 
ENDROOT
BRANCH  12  25
ATOM     25  CB  ARG     5      31.130  29.610  32.550  1.00  0.00     0.036 C 
BRANCH  25  26
ATOM     26  CG  ARG     5      32.570  30.090  32.730  1.00  0.00     0.029 C 
BRANCH  26  27
ATOM     27  CD  ARG     5      32.880  30.180  34.230  1.00  0.00     0.145 C 
BRANCH  27  28
ATOM     28  NE  ARG     5      32.000  31.190  34.860  1.00  0.00    -0.083 NA
ATOM     29  CZ  ARG     5      31.970  31.510  36.170  1.00  0.00     0.782 C 
ATOM     30  NH2 ARG     5      31.080  32.410  36.600  1.00  0.00     0.063 N 
ATOM     31  NH1 ARG     5      32.800  30.950  37.050  1.00  0.00     0.063 N 
ENDBRANCH  27  28
ENDBRANCH  26  27
ENDBRANCH  25  26
ENDBRANCH  12  25
BRANCH  16  32
ATOM     32  CB  TRP     6      26.320  27.450  30.980  1.00  0.00     0.062 C 
BRANCH  32  33
ATOM     33  CG  TRP     6      26.230  27.610  32.500  1.00  0.00     0.001 A 
ATOM     34  CD1 TRP     6      26.640  26.710  33.400  1.00  0.00     0.095 A 
ATOM     35  NE1 TRP     6      25.980  26.860  34.550  1.00  0.00    -0.244 NA
ATOM     36  CE2 TRP     6      25.180  27.920  34.440  1.00  0.00     0.081 A 
ATOM     37  CZ2 TRP     6      24.210  28.450  35.290  1.00  0.00     0.019 A 
ATOM     38  CD2 TRP     6      25.290  28.410  33.150  1.00  0.00     0.015 A 
ATOM     39  CH2 TRP     6      23.330  29.420  34.840  1.00  0.00     0.002 A 
ATOM     40  CZ3 TRP     6      23.420  29.880  33.530  1.00  0.00     0.000 A 
ATOM     41  CE3 TRP     6      24.410  29.380  32.690  1.00  0.00     0.001 A 
ENDBRANCH  32  33
ENDBRANCH  16  32
BRANCH   8  42
ATOM     42  CB  TRP     4      30.720  32.630  28.120  1.00  0.00     0.062 C 
BRANCH  42  43
ATOM     43  CG  TRP     4      31.920  32.230  27.240  1.00  0.00     0.001 A 
ATOM     44  CD1 TRP     4      33.170  32.030  27.650  1.00  0.00     0.095 A 
ATOM     45  NE1 TRP     4      33.970  31.870  26.590  1.00  0.00    -0.244 NA
ATOM     46  CE2 TRP     4      33.250  31.940  25.480  1.00  0.00     0.081 A 
ATOM     47  CZ2 TRP     4      33.570  31.760  24.130  1.00  0.00     0.019 A 
ATOM     48  CD2 TRP     4      31.930  32.170  25.850  1.00  0.00     0.015 A 
ATOM     49  CH2 TRP     4      32.580  31.830  23.170  1.00  0.00     0.002 A 
ATOM     50  CZ3 TRP     4      31.260  32.060  23.540  1.00  0.00     0.000 A 
ATOM     51  CE3 TRP     4      30.940  32.230  24.880  1.00  0.00     0.001 A 
ENDBRANCH  42  43
ENDBRANCH   8  42
BRANCH  20  52
ATOM     52  CB  TRP     7      27.580  28.630  25.860  1.00  0.00     0.062 C 
BRANCH  52  53
ATOM     53  CG  TRP     7      27.410  28.520  24.340  1.00  0.00     0.001 A 
ATOM     54  CD1 TRP     7      26.320  28.100  23.710  1.00  0.00     0.095 A 
ATOM     55  NE1 TRP     7      26.580  27.900  22.420  1.00  0.00    -0.244 NA
ATOM     56  CE2 TRP     7      27.850  28.210  22.180  1.00  0.00     0.081 A 
ATOM     57  CZ2 TRP     7      28.630  28.170  21.030  1.00  0.00     0.019 A 
ATOM     58  CD2 TRP     7      28.410  28.620  23.380  1.00  0.00     0.015 A 
ATOM     59  CH2 TRP     7      29.970  28.540  21.080  1.00  0.00     0.002 A 
ATOM     60  CZ3 TRP     7      30.530  28.950  22.290  1.00  0.00     0.000 A 
ATOM     61  CE3 TRP     7      29.750  28.990  23.440  1.00  0.00     0.001 A 
ENDBRANCH  52  53
ENDBRANCH  20  52
BRANCH   4  62
ATOM     62  CB  TRP     3      25.760  33.270  29.420  1.00  0.00     0.062 C 
BRANCH  62  63
ATOM     63  CG  TRP     3      25.100  32.890  28.100  1.00  0.00     0.001 A 
ATOM     64  CD1 TRP     3      23.930  32.260  27.970  1.00  0.00     0.095 A 
ATOM     65  NE1 TRP     3      23.730  31.940  26.690  1.00  0.00    -0.244 NA
ATOM     66  CE2 TRP     3      24.770  32.360  25.970  1.00  0.00     0.081 A 
ATOM     67  CZ2 TRP     3      25.060  32.270  24.610  1.00  0.00     0.019 A 
ATOM     68  CD2 TRP     3      25.650  32.980  26.830  1.00  0.00     0.015 A 
ATOM     69  CH2 TRP     3      26.240  32.800  24.120  1.00  0.00     0.002 A 
ATOM     70  CZ3 TRP     3      27.120  33.440  24.980  1.00  0.00     0.000 A 
ATOM     71  CE3 TRP     3      26.830  33.540  26.330  1.00  0.00     0.001 A 
ENDBRANCH  62  63
ENDBRANCH   4  62
BRANCH   1  72
ATOM     72  CA  ARG     2      28.080  32.700  33.560  1.00  0.00     0.186 C 
BRANCH  72  73
ATOM     73  CB  ARG     2      26.990  32.970  34.610  1.00  0.00     0.036 C 
BRANCH  73  74
ATOM     74  CG  ARG     2      26.300  31.730  35.190  1.00  0.00     0.029 C 
BRANCH  74  75
ATOM     75  CD  ARG     2      27.160  30.860  36.110  1.00  0.00     0.145 C 
BRANCH  75  76
ATOM     76  NE  ARG     2      27.750  29.690  35.420  1.00  0.00    -0.083 NA
ATOM     77  CZ  ARG     2      28.540  28.770  36.000  1.00  0.00     0.782 C 
ATOM     78  NH1 ARG     2      28.790  28.800  37.320  1.00  0.00     0.063 N 
ATOM     79  NH2 ARG     2      29.160  27.860  35.250  1.00  0.00     0.063 N 
ENDBRANCH  75  76
ENDBRANCH  74  75
ENDBRANCH  73  74
ENDBRANCH  72  73
BRANCH  72  80
ATOM     80  N   ARG     2      28.780  33.950  33.180  1.00  0.00    -0.229 NA
ATOM     81  C   HIS     1      29.810  33.950  32.320  1.00  0.00     0.289 C 
ATOM     82  O   HIS     1      30.250  32.900  31.850  1.00  0.00    -0.268 OA
BRANCH  81  83
ATOM     83  CA  HIS     1      30.560  35.260  31.950  1.00  0.00     0.387 C 
ATOM     84  N   HIS     1      29.770  36.480  31.690  1.00  0.00     0.627 N 
BRANCH  83  85
ATOM     85  CB  HIS     1      31.630  35.550  33.010  1.00  0.00     0.097 C 
BRANCH  85  86
ATOM     86  CG  HIS     1      32.640  34.420  33.210  1.00  0.00     0.083 A 
ATOM     87  CD2 HIS     1      33.650  34.120  32.390  1.00  0.00     0.116 A 
ATOM     88  NE2 HIS     1      34.630  33.560  33.100  1.00  0.00    -0.221 NA
ATOM     89  CE1 HIS     1      34.210  33.480  34.360  1.00  0.00     0.199 A 
ATOM     90  ND1 HIS     1      32.970  33.960  34.420  1.00  0.00    -0.227 NA
ENDBRANCH  85  86
ENDBRANCH  83  85
ENDBRANCH  81  83
ENDBRANCH  72  80
ENDBRANCH   1  72
BRANCH  24  91
ATOM     91  CB  ARG     8      32.570  27.220  27.010  1.00  0.00     0.036 C 
BRANCH  91  92
ATOM     92  CG  ARG     8      32.770  28.370  26.030  1.00  0.00     0.029 C 
BRANCH  92  93
ATOM     93  CD  ARG     8      33.040  27.890  24.600  1.00  0.00     0.145 C 
BRANCH  93  94
ATOM     94  NE  ARG     8      34.220  27.010  24.500  1.00  0.00    -0.083 NA
ATOM     95  CZ  ARG     8      34.680  26.480  23.360  1.00  0.00     0.782 C 
ATOM     96  NH2 ARG     8      35.870  25.890  23.330  1.00  0.00     0.063 N 
ATOM     97  NH1 ARG     8      34.000  26.640  22.210  1.00  0.00     0.063 N 
ENDBRANCH  93  94
ENDBRANCH  92  93
ENDBRANCH  91  92
ENDBRANCH  24  91
BRANCH  24  98
ATOM     98  C   ARG     8      31.750  24.890  27.300  1.00  0.00     0.274 C 
ATOM     99  O   ARG     8      32.930  24.510  27.340  1.00  0.00    -0.268 OA
ATOM    100  N   ARG     9      30.740  24.250  27.870  1.00  0.00    -0.227 NA
BRANCH 100 101
ATOM    101  CA  ARG     9      30.920  23.020  28.660  1.00  0.00     0.193 C 
BRANCH 101 102
ATOM    102  C   ARG     9      29.980  21.950  28.100  1.00  0.00     0.209 C 
ATOM    103  O1  ARG     9      28.920  22.370  27.580  1.00  0.00    -0.646 OA
ATOM    104  O2  ARG     9      30.300  20.760  28.320  1.00  0.00    -0.646 OA
ENDBRANCH 101 102
BRANCH 101 105
ATOM    105  CB  ARG     9      30.520  23.230  30.110  1.00  0.00     0.038 C 
BRANCH 105 106
ATOM    106  CG  ARG     9      31.590  23.950  30.920  1.00  0.00     0.030 C 
BRANCH 106 107
ATOM    107  CD  ARG     9      31.150  23.900  32.370  1.00  0.00     0.145 C 
BRANCH 107 108
ATOM    108  NE  ARG     9      32.230  24.420  33.220  1.00  0.00    -0.083 NA
ATOM    109  CZ  ARG     9      32.200  24.460  34.560  1.00  0.00     0.782 C 
ATOM    110  NH2 ARG     9      33.200  25.040  35.230  1.00  0.00     0.063 N 
ATOM    111  NH1 ARG     9      31.150  23.970  35.230  1.00  0.00     0.063 N 
ENDBRANCH 107 108
ENDBRANCH 106 107
ENDBRANCH 105 106
ENDBRANCH 101 105
ENDBRANCH 100 101
ENDBRANCH  24  98
TORSDOF 43
