MODEL 1
REMARK VINA RESULT:      -5.2      0.000      0.000
REMARK WARNING: 32 MAX_TORS EXCEEDED!!!
REMARK  41 active torsions:
REMARK  status: ('A' for Active; 'I' for Inactive)
REMARK    1  A    between atoms: N_1  and  CA_2 
REMARK    2  A    between atoms: CA_2  and  CB_5 
REMARK    3  A    between atoms: CA_2  and  C_3 
REMARK       I    between atoms: C_3  and  N_20 
REMARK    4  A    between atoms: CB_5  and  CG_6 
REMARK    5  A    between atoms: CG_6  and  CD_7 
REMARK    6  A    between atoms: CD_7  and  NE_8 
REMARK       I    between atoms: NE_8  and  CZ_9 
REMARK       I    between atoms: CZ_9  and  NH1_10 
REMARK    7  A    between atoms: N_20  and  CA_21 
REMARK    8  A    between atoms: CA_21  and  CB_24 
REMARK    9  A    between atoms: CA_21  and  C_22 
REMARK       I    between atoms: C_22  and  N_28 
REMARK   10  A    between atoms: N_28  and  CA_29 
REMARK   11  A    between atoms: CA_29  and  C_30 
REMARK   12  A    between atoms: CA_29  and  CB_32 
REMARK       I    between atoms: C_30  and  N_36 
REMARK   13  A    between atoms: CB_32  and  SG_33 
REMARK   14  A    between atoms: N_36  and  CA_37 
REMARK   15  A    between atoms: CA_37  and  C_38 
REMARK   16  A    between atoms: CA_37  and  CB_40 
REMARK       I    between atoms: C_38  and  N_48 
REMARK   17  A    between atoms: CB_40  and  CG_41 
REMARK   18  A    between atoms: N_48  and  CA_49 
REMARK   19  A    between atoms: CA_49  and  C_50 
REMARK       I    between atoms: C_50  and  N_54 
REMARK   20  A    between atoms: N_54  and  CA_55 
REMARK   21  A    between atoms: CA_55  and  CB_58 
REMARK   22  A    between atoms: CA_55  and  C_56 
REMARK       I    between atoms: C_56  and  N_63 
REMARK   23  A    between atoms: CB_58  and  CG1_59 
REMARK   24  A    between atoms: CA_64  and  C_65 
REMARK       I    between atoms: C_65  and  N_70 
REMARK   25  A    between atoms: N_70  and  CA_71 
REMARK   26  A    between atoms: CA_71  and  CB_74 
REMARK   27  A    between atoms: CA_71  and  C_72 
REMARK       I    between atoms: C_72  and  N_79 
REMARK   28  A    between atoms: CB_74  and  CG_75 
REMARK   29  A    between atoms: CA_80  and  C_81 
REMARK       I    between atoms: C_81  and  N_86 
REMARK   30  A    between atoms: N_86  and  CA_87 
REMARK   31  A    between atoms: CA_87  and  C_88 
REMARK   32  A    between atoms: CA_87  and  CB_90 
REMARK       I    between atoms: C_88  and  N_95 
REMARK   33  A    between atoms: CB_90  and  CG1_91 
REMARK   34  A    between atoms: N_95  and  CA_96 
REMARK   35  A    between atoms: CA_96  and  C_97 
REMARK   36  A    between atoms: CA_96  and  CB_99 
REMARK       I    between atoms: C_97  and  N_103 
REMARK   37  A    between atoms: CB_99  and  SG_100 
REMARK   38  A    between atoms: N_103  and  CA_104 
REMARK   39  A    between atoms: CA_104  and  C_105 
REMARK   40  A    between atoms: CA_104  and  CB_107 
REMARK   41  A    between atoms: CB_107  and  CG_108 
ROOT
ATOM      1  N   ARG     1      68.258  43.243  45.145  1.00  0.00    -0.058 N 
ATOM      2  H1  ARG     1      68.320  42.990  44.179  1.00 99.99     0.276 HD
ATOM      3  H2  ARG     1      68.144  44.223  45.198  1.00 99.99     0.276 HD
ATOM      4  H3  ARG     1      69.128  43.065  45.590  1.00 99.99     0.276 HD
ENDROOT
BRANCH   1   5
ATOM      5  CA  ARG     1      67.128  42.513  45.785  1.00  0.00     0.255 C 
BRANCH   5   6
ATOM      6  CB  ARG     1      66.034  43.485  46.272  1.00  0.00     0.042 C 
BRANCH   6   7
ATOM      7  CG  ARG     1      66.486  44.812  46.893  1.00  0.00     0.027 C 
BRANCH   7   8
ATOM      8  CD  ARG     1      66.712  44.598  48.397  1.00  0.00     0.116 C 
BRANCH   8   9
ATOM      9  NE  ARG     1      65.584  45.094  49.210  1.00  0.00    -0.212 N 
ATOM     10  HE  ARG     1      64.905  44.408  49.460  1.00 99.99     0.178 HD
ATOM     11  CZ  ARG     1      65.379  46.359  49.599  1.00  0.00     0.666 C 
ATOM     12  NH2 ARG     1      64.382  46.651  50.426  1.00  0.00    -0.235 N 
ATOM     13  NH1 ARG     1      66.184  47.353  49.242  1.00  0.00    -0.235 N 
ATOM     14 2HH2 ARG     1      63.775  45.936  50.763  1.00 99.99     0.174 HD
ATOM     15 1HH2 ARG     1      64.246  47.597  50.715  1.00 99.99     0.174 HD
ATOM     16 1HH1 ARG     1      66.008  48.284  49.553  1.00 99.99     0.174 HD
ATOM     17 2HH1 ARG     1      66.961  47.157  48.648  1.00 99.99     0.174 HD
ENDBRANCH   8   9
ENDBRANCH   7   8
ENDBRANCH   6   7
ENDBRANCH   5   6
BRANCH   5  18
ATOM     18  C   ARG     1      66.456  41.463  44.857  1.00  0.00     0.259 C 
ATOM     19  O   ARG     1      66.925  40.337  44.681  1.00  0.00    -0.271 OA
ATOM     20  N   VAL     2      65.372  41.888  44.212  1.00  0.00    -0.338 N 
ATOM     21  H   VAL     2      65.192  42.862  44.079  1.00 99.99     0.164 HD
BRANCH  20  22
ATOM     22  CA  VAL     2      64.433  41.028  43.459  1.00  0.00     0.159 C 
BRANCH  22  23
ATOM     23  CB  VAL     2      62.969  41.498  43.634  1.00  0.00     0.029 C 
ATOM     24  CG1 VAL     2      62.896  42.767  44.490  1.00  0.00     0.002 C 
ATOM     25  CG2 VAL     2      62.240  41.756  42.306  1.00  0.00     0.002 C 
ENDBRANCH  22  23
BRANCH  22  26
ATOM     26  C   VAL     2      64.844  41.025  41.977  1.00  0.00     0.251 C 
ATOM     27  O   VAL     2      65.360  42.033  41.497  1.00  0.00    -0.271 OA
ATOM     28  N   CYS     3      64.716  39.872  41.321  1.00  0.00    -0.337 N 
ATOM     29  H   CYS     3      64.333  39.052  41.746  1.00 99.99     0.164 HD
BRANCH  28  30
ATOM     30  CA  CYS     3      65.141  39.686  39.916  1.00  0.00     0.170 C 
BRANCH  30  31
ATOM     31  C   CYS     3      63.975  40.020  38.971  1.00  0.00     0.252 C 
ATOM     32  O   CYS     3      63.457  39.129  38.299  1.00  0.00    -0.271 OA
ATOM     33  N   PHE     4      63.536  41.277  38.999  1.00  0.00    -0.337 N 
ATOM     34  H   PHE     4      64.000  41.983  39.534  1.00 99.99     0.164 HD
BRANCH  33  35
ATOM     35  CA  PHE     4      62.419  41.780  38.163  1.00  0.00     0.164 C 
BRANCH  35  36
ATOM     36  C   PHE     4      61.226  40.798  38.176  1.00  0.00     0.251 C 
ATOM     37  O   PHE     4      60.723  40.439  37.115  1.00  0.00    -0.271 OA
ATOM     38  N   ALA     5      60.783  40.394  39.370  1.00  0.00    -0.338 N 
ATOM     39  H   ALA     5      61.251  40.659  40.209  1.00 99.99     0.164 HD
BRANCH  38  40
ATOM     40  CA  ALA     5      59.697  39.394  39.533  1.00  0.00     0.159 C 
ATOM     41  CB  ALA     5      60.317  38.039  39.888  1.00  0.00     0.034 C 
BRANCH  40  42
ATOM     42  C   ALA     5      58.559  39.719  40.526  1.00  0.00     0.251 C 
ATOM     43  N   ILE     6      58.560  39.068  41.689  1.00  0.00    -0.338 N 
ATOM     44  H   ILE     6      59.316  38.476  41.951  1.00 99.99     0.164 HD
ATOM     45  O   ALA     5      57.656  40.487  40.208  1.00  0.00    -0.271 OA
BRANCH  43  46
ATOM     46  CA  ILE     6      57.506  39.202  42.727  1.00  0.00     0.160 C 
BRANCH  46  47
ATOM     47  CB  ILE     6      56.721  37.877  42.849  1.00  0.00     0.029 C 
ATOM     48  CG2 ILE     6      55.217  38.190  42.857  1.00  0.00     0.002 C 
BRANCH  47  49
ATOM     49  CG1 ILE     6      57.118  36.848  41.772  1.00  0.00     0.002 C 
ATOM     50  CD  ILE     6      55.974  35.929  41.324  1.00  0.00     0.000 C 
ENDBRANCH  47  49
ENDBRANCH  46  47
BRANCH  46  51
ATOM     51  C   ILE     6      58.061  39.668  44.095  1.00  0.00     0.254 C 
ATOM     52  O   ILE     6      58.055  38.856  45.015  1.00  0.00    -0.270 OA
ATOM     53  N   PRO     7      58.468  40.936  44.281  1.00  0.00    -0.312 N 
ATOM     54  CD  PRO     7      58.422  42.024  43.284  1.00  0.00     0.105 C 
ATOM     55  CA  PRO     7      59.060  41.421  45.550  1.00  0.00     0.163 C 
ATOM     56  CG  PRO     7      58.636  43.297  44.103  1.00  0.00     0.027 C 
ATOM     57  CB  PRO     7      59.550  42.840  45.240  1.00  0.00     0.034 C 
BRANCH  55  58
ATOM     58  C   PRO     7      58.145  41.336  46.791  1.00  0.00     0.251 C 
ATOM     59  N   LEU     8      58.504  40.391  47.659  1.00  0.00    -0.338 N 
ATOM     60  H   LEU     8      59.263  39.783  47.426  1.00 99.99     0.164 HD
ATOM     61  O   PRO     7      57.205  42.106  46.973  1.00  0.00    -0.271 OA
BRANCH  59  62
ATOM     62  CA  LEU     8      57.822  40.039  48.926  1.00  0.00     0.160 C 
BRANCH  62  63
ATOM     63  CB  LEU     8      58.271  38.659  49.439  1.00  0.00     0.032 C 
BRANCH  63  64
ATOM     64  CG  LEU     8      57.455  38.051  50.587  1.00  0.00     0.002 C 
ATOM     65  CD2 LEU     8      57.883  36.615  50.904  1.00  0.00     0.000 C 
ATOM     66  CD1 LEU     8      55.979  38.057  50.186  1.00  0.00     0.000 C 
ENDBRANCH  63  64
ENDBRANCH  62  63
BRANCH  62  67
ATOM     67  C   LEU     8      58.168  41.064  50.026  1.00  0.00     0.254 C 
ATOM     68  O   LEU     8      59.327  41.098  50.447  1.00  0.00    -0.270 OA
ATOM     69  N   PRO     9      57.178  41.791  50.576  1.00  0.00    -0.312 N 
ATOM     70  CD  PRO     9      55.781  41.824  50.091  1.00  0.00     0.105 C 
ATOM     71  CA  PRO     9      57.360  42.815  51.634  1.00  0.00     0.163 C 
ATOM     72  CG  PRO     9      55.182  43.094  50.697  1.00  0.00     0.027 C 
ATOM     73  CB  PRO     9      55.939  43.234  52.013  1.00  0.00     0.034 C 
BRANCH  71  74
ATOM     74  C   PRO     9      58.153  42.447  52.906  1.00  0.00     0.251 C 
ATOM     75  N   ILE    10      57.965  41.232  53.421  1.00  0.00    -0.338 N 
ATOM     76  H   ILE    10      57.204  40.660  53.128  1.00 99.99     0.164 HD
ATOM     77  O   PRO     9      58.773  43.325  53.495  1.00  0.00    -0.271 OA
BRANCH  75  78
ATOM     78  CA  ILE    10      58.728  40.678  54.569  1.00  0.00     0.159 C 
BRANCH  78  79
ATOM     79  C   ILE    10      60.173  40.246  54.202  1.00  0.00     0.251 C 
ATOM     80  O   ILE    10      61.068  40.249  55.044  1.00  0.00    -0.271 OA
ATOM     81  N   CYS    11      60.375  39.872  52.941  1.00  0.00    -0.337 N 
ATOM     82  H   CYS    11      59.653  39.955  52.256  1.00 99.99     0.164 HD
BRANCH  81  83
ATOM     83  CA  CYS    11      61.631  39.283  52.415  1.00  0.00     0.170 C 
BRANCH  83  84
ATOM     84  C   CYS    11      62.638  40.341  51.925  1.00  0.00     0.252 C 
ATOM     85  O   CYS    11      63.820  40.059  51.757  1.00  0.00    -0.271 OA
ATOM     86  N   HIS    12      62.082  41.439  51.419  1.00  0.00    -0.336 N 
ATOM     87  H   HIS    12      61.090  41.530  51.375  1.00 99.99     0.164 HD
BRANCH  86  88
ATOM     88  CA  HIS    12      62.833  42.607  50.922  1.00  0.00     0.174 C 
BRANCH  88  89
ATOM     89  C   HIS    12      62.205  43.924  51.412  1.00  0.00     0.207 C 
ATOM     90  O   HIS    12      61.804  43.981  52.594  1.00 99.99    -0.646 OA
ATOM     91  OXT HIS    12      62.128  44.839  50.562  1.00 99.99    -0.646 OA
ENDBRANCH  88  89
BRANCH  88  92
ATOM     92  CB  HIS    12      62.821  42.579  49.388  1.00  0.00     0.078 C 
BRANCH  92  93
ATOM     93  CG  HIS    12      63.934  41.747  48.736  1.00  0.00     0.057 A 
ATOM     94  ND1 HIS    12      65.113  41.493  49.303  1.00  0.00    -0.338 N 
ATOM     95  CE1 HIS    12      65.668  40.463  48.674  1.00  0.00     0.175 A 
ATOM     96  HD1 HIS    12      65.526  42.005  50.056  1.00 99.99     0.167 HD
ATOM     97  NE2 HIS    12      64.858  40.104  47.686  1.00  0.00    -0.223 NA
ATOM     98  CD2 HIS    12      63.790  40.898  47.719  1.00  0.00     0.113 A 
ENDBRANCH  92  93
ENDBRANCH  88  92
ENDBRANCH  86  88
ENDBRANCH  83  84
BRANCH  83  99
ATOM     99  CB  CYS    11      61.305  38.415  51.200  1.00  0.00     0.085 C 
BRANCH  99 100
ATOM    100  SG  CYS    11      61.850  36.673  51.295  1.00  0.00    -0.165 SA
ATOM    101  HG  CYS    11      63.073  36.987  51.722  1.00 99.99     0.102 HD
ENDBRANCH  99 100
ENDBRANCH  83  99
ENDBRANCH  81  83
ENDBRANCH  78  79
BRANCH  78 102
ATOM    102  CB  ILE    10      57.880  39.547  55.203  1.00  0.00     0.029 C 
ATOM    103  CG2 ILE    10      56.530  40.036  55.755  1.00  0.00     0.002 C 
BRANCH 102 104
ATOM    104  CG1 ILE    10      57.670  38.415  54.178  1.00  0.00     0.002 C 
ATOM    105  CD  ILE    10      56.381  37.601  54.358  1.00  0.00     0.000 C 
ENDBRANCH 102 104
ENDBRANCH  78 102
ENDBRANCH  75  78
ENDBRANCH  71  74
ENDBRANCH  62  67
ENDBRANCH  59  62
ENDBRANCH  55  58
ENDBRANCH  46  51
ENDBRANCH  43  46
ENDBRANCH  40  42
ENDBRANCH  38  40
ENDBRANCH  35  36
BRANCH  35 106
ATOM    106  CB  PHE     4      62.895  42.030  36.724  1.00  0.00     0.056 C 
BRANCH 106 107
ATOM    107  CG  PHE     4      63.768  43.275  36.560  1.00  0.00    -0.044 A 
ATOM    108  CD2 PHE     4      65.130  43.148  36.307  1.00  0.00     0.008 A 
ATOM    109  CE2 PHE     4      65.916  44.282  36.153  1.00  0.00     0.001 A 
ATOM    110  CZ  PHE     4      65.342  45.544  36.242  1.00  0.00     0.000 A 
ATOM    111  CE1 PHE     4      63.981  45.674  36.487  1.00  0.00     0.001 A 
ATOM    112  CD1 PHE     4      63.196  44.538  36.652  1.00  0.00     0.008 A 
ENDBRANCH 106 107
ENDBRANCH  35 106
ENDBRANCH  33  35
ENDBRANCH  30  31
BRANCH  30 113
ATOM    113  CB  CYS     3      65.545  38.224  39.675  1.00  0.00     0.085 C 
BRANCH 113 114
ATOM    114  SG  CYS     3      67.048  37.960  38.662  1.00  0.00    -0.165 SA
ATOM    115  HG  CYS     3      67.615  37.080  39.483  1.00 99.99     0.102 HD
ENDBRANCH 113 114
ENDBRANCH  30 113
ENDBRANCH  28  30
ENDBRANCH  22  26
ENDBRANCH  20  22
ENDBRANCH   5  18
ENDBRANCH   1   5
TORSDOF 41
ENDMDL
MODEL 2
REMARK VINA RESULT:      -5.1      3.188     10.495
REMARK WARNING: 32 MAX_TORS EXCEEDED!!!
REMARK  41 active torsions:
REMARK  status: ('A' for Active; 'I' for Inactive)
REMARK    1  A    between atoms: N_1  and  CA_2 
REMARK    2  A    between atoms: CA_2  and  CB_5 
REMARK    3  A    between atoms: CA_2  and  C_3 
REMARK       I    between atoms: C_3  and  N_20 
REMARK    4  A    between atoms: CB_5  and  CG_6 
REMARK    5  A    between atoms: CG_6  and  CD_7 
REMARK    6  A    between atoms: CD_7  and  NE_8 
REMARK       I    between atoms: NE_8  and  CZ_9 
REMARK       I    between atoms: CZ_9  and  NH1_10 
REMARK    7  A    between atoms: N_20  and  CA_21 
REMARK    8  A    between atoms: CA_21  and  CB_24 
REMARK    9  A    between atoms: CA_21  and  C_22 
REMARK       I    between atoms: C_22  and  N_28 
REMARK   10  A    between atoms: N_28  and  CA_29 
REMARK   11  A    between atoms: CA_29  and  C_30 
REMARK   12  A    between atoms: CA_29  and  CB_32 
REMARK       I    between atoms: C_30  and  N_36 
REMARK   13  A    between atoms: CB_32  and  SG_33 
REMARK   14  A    between atoms: N_36  and  CA_37 
REMARK   15  A    between atoms: CA_37  and  C_38 
REMARK   16  A    between atoms: CA_37  and  CB_40 
REMARK       I    between atoms: C_38  and  N_48 
REMARK   17  A    between atoms: CB_40  and  CG_41 
REMARK   18  A    between atoms: N_48  and  CA_49 
REMARK   19  A    between atoms: CA_49  and  C_50 
REMARK       I    between atoms: C_50  and  N_54 
REMARK   20  A    between atoms: N_54  and  CA_55 
REMARK   21  A    between atoms: CA_55  and  CB_58 
REMARK   22  A    between atoms: CA_55  and  C_56 
REMARK       I    between atoms: C_56  and  N_63 
REMARK   23  A    between atoms: CB_58  and  CG1_59 
REMARK   24  A    between atoms: CA_64  and  C_65 
REMARK       I    between atoms: C_65  and  N_70 
REMARK   25  A    between atoms: N_70  and  CA_71 
REMARK   26  A    between atoms: CA_71  and  CB_74 
REMARK   27  A    between atoms: CA_71  and  C_72 
REMARK       I    between atoms: C_72  and  N_79 
REMARK   28  A    between atoms: CB_74  and  CG_75 
REMARK   29  A    between atoms: CA_80  and  C_81 
REMARK       I    between atoms: C_81  and  N_86 
REMARK   30  A    between atoms: N_86  and  CA_87 
REMARK   31  A    between atoms: CA_87  and  C_88 
REMARK   32  A    between atoms: CA_87  and  CB_90 
REMARK       I    between atoms: C_88  and  N_95 
REMARK   33  A    between atoms: CB_90  and  CG1_91 
REMARK   34  A    between atoms: N_95  and  CA_96 
REMARK   35  A    between atoms: CA_96  and  C_97 
REMARK   36  A    between atoms: CA_96  and  CB_99 
REMARK       I    between atoms: C_97  and  N_103 
REMARK   37  A    between atoms: CB_99  and  SG_100 
REMARK   38  A    between atoms: N_103  and  CA_104 
REMARK   39  A    between atoms: CA_104  and  C_105 
REMARK   40  A    between atoms: CA_104  and  CB_107 
REMARK   41  A    between atoms: CB_107  and  CG_108 
ROOT
ATOM      1  N   ARG     1      52.537  38.321  51.580  1.00  0.00    -0.058 N 
ATOM      2  H1  ARG     1      51.602  38.071  51.832  1.00 99.99     0.276 HD
ATOM      3  H2  ARG     1      53.105  37.518  51.674  1.00 99.99     0.276 HD
ATOM      4  H3  ARG     1      52.897  38.965  52.245  1.00 99.99     0.276 HD
ENDROOT
BRANCH   1   5
ATOM      5  CA  ARG     1      52.557  38.860  50.191  1.00  0.00     0.255 C 
BRANCH   5   6
ATOM      6  CB  ARG     1      51.212  38.622  49.475  1.00  0.00     0.042 C 
BRANCH   6   7
ATOM      7  CG  ARG     1      50.684  37.185  49.411  1.00  0.00     0.027 C 
BRANCH   7   8
ATOM      8  CD  ARG     1      50.987  36.612  48.019  1.00  0.00     0.116 C 
BRANCH   8   9
ATOM      9  NE  ARG     1      52.354  36.063  47.923  1.00  0.00    -0.212 N 
ATOM     10  HE  ARG     1      52.542  35.283  48.515  1.00 99.99     0.178 HD
ATOM     11  CZ  ARG     1      53.348  36.532  47.158  1.00  0.00     0.666 C 
ATOM     12  NH2 ARG     1      54.499  35.875  47.079  1.00  0.00    -0.235 N 
ATOM     13  NH1 ARG     1      53.214  37.616  46.403  1.00  0.00    -0.235 N 
ATOM     14 2HH2 ARG     1      54.638  35.030  47.589  1.00 99.99     0.174 HD
ATOM     15 1HH2 ARG     1      55.229  36.232  46.499  1.00 99.99     0.174 HD
ATOM     16 1HH1 ARG     1      53.972  37.938  45.839  1.00 99.99     0.174 HD
ATOM     17 2HH1 ARG     1      52.349  38.112  46.416  1.00 99.99     0.174 HD
ENDBRANCH   8   9
ENDBRANCH   7   8
ENDBRANCH   6   7
ENDBRANCH   5   6
BRANCH   5  18
ATOM     18  C   ARG     1      52.878  40.378  50.115  1.00  0.00     0.259 C 
ATOM     19  O   ARG     1      52.006  41.233  49.945  1.00  0.00    -0.271 OA
ATOM     20  N   VAL     2      54.171  40.689  50.180  1.00  0.00    -0.338 N 
ATOM     21  H   VAL     2      54.880  40.015  49.972  1.00 99.99     0.164 HD
BRANCH  20  22
ATOM     22  CA  VAL     2      54.716  42.053  50.358  1.00  0.00     0.159 C 
BRANCH  22  23
ATOM     23  CB  VAL     2      55.702  42.118  51.548  1.00  0.00     0.029 C 
ATOM     24  CG1 VAL     2      55.854  43.554  52.060  1.00  0.00     0.002 C 
ATOM     25  CG2 VAL     2      55.309  41.212  52.726  1.00  0.00     0.002 C 
ENDBRANCH  22  23
BRANCH  22  26
ATOM     26  C   VAL     2      55.393  42.491  49.048  1.00  0.00     0.251 C 
ATOM     27  O   VAL     2      55.484  43.691  48.793  1.00  0.00    -0.271 OA
ATOM     28  N   CYS     3      55.948  41.530  48.310  1.00  0.00    -0.337 N 
ATOM     29  H   CYS     3      55.899  40.564  48.561  1.00 99.99     0.164 HD
BRANCH  28  30
ATOM     30  CA  CYS     3      56.704  41.798  47.066  1.00  0.00     0.170 C 
BRANCH  30  31
ATOM     31  C   CYS     3      56.476  40.655  46.063  1.00  0.00     0.252 C 
ATOM     32  O   CYS     3      55.420  40.593  45.435  1.00  0.00    -0.271 OA
ATOM     33  N   PHE     4      57.499  39.824  45.875  1.00  0.00    -0.337 N 
ATOM     34  H   PHE     4      58.333  39.885  46.425  1.00 99.99     0.164 HD
BRANCH  33  35
ATOM     35  CA  PHE     4      57.465  38.670  44.944  1.00  0.00     0.164 C 
BRANCH  35  36
ATOM     36  C   PHE     4      57.473  37.331  45.714  1.00  0.00     0.251 C 
ATOM     37  O   PHE     4      56.830  36.378  45.283  1.00  0.00    -0.271 OA
ATOM     38  N   ALA     5      58.184  37.283  46.845  1.00  0.00    -0.338 N 
ATOM     39  H   ALA     5      58.740  38.057  47.135  1.00 99.99     0.164 HD
BRANCH  38  40
ATOM     40  CA  ALA     5      58.345  36.044  47.646  1.00  0.00     0.159 C 
ATOM     41  CB  ALA     5      59.513  35.232  47.078  1.00  0.00     0.034 C 
BRANCH  40  42
ATOM     42  C   ALA     5      58.511  36.188  49.176  1.00  0.00     0.251 C 
ATOM     43  N   ILE     6      59.230  37.220  49.617  1.00  0.00    -0.338 N 
ATOM     44  H   ILE     6      59.560  37.925  48.997  1.00 99.99     0.164 HD
ATOM     45  O   ALA     5      58.059  35.335  49.933  1.00  0.00    -0.271 OA
BRANCH  43  46
ATOM     46  CA  ILE     6      59.550  37.470  51.045  1.00  0.00     0.160 C 
BRANCH  46  47
ATOM     47  CB  ILE     6      61.017  37.080  51.328  1.00  0.00     0.029 C 
ATOM     48  CG2 ILE     6      61.057  35.629  51.833  1.00  0.00     0.002 C 
BRANCH  47  49
ATOM     49  CG1 ILE     6      61.943  37.324  50.119  1.00  0.00     0.002 C 
ATOM     50  CD  ILE     6      63.210  36.460  50.110  1.00  0.00     0.000 C 
ENDBRANCH  47  49
ENDBRANCH  46  47
BRANCH  46  51
ATOM     51  C   ILE     6      59.246  38.923  51.487  1.00  0.00     0.254 C 
ATOM     52  O   ILE     6      59.333  39.803  50.635  1.00  0.00    -0.270 OA
ATOM     53  N   PRO     7      58.968  39.213  52.769  1.00  0.00    -0.312 N 
ATOM     54  CD  PRO     7      58.941  38.258  53.895  1.00  0.00     0.105 C 
ATOM     55  CA  PRO     7      58.614  40.574  53.236  1.00  0.00     0.163 C 
ATOM     56  CG  PRO     7      58.950  39.144  55.142  1.00  0.00     0.027 C 
ATOM     57  CB  PRO     7      58.189  40.393  54.697  1.00  0.00     0.034 C 
BRANCH  55  58
ATOM     58  C   PRO     7      59.699  41.654  53.033  1.00  0.00     0.251 C 
ATOM     59  N   LEU     8      60.922  41.159  52.846  1.00  0.00    -0.338 N 
ATOM     60  H   LEU     8      61.060  40.171  52.918  1.00 99.99     0.164 HD
ATOM     61  O   PRO     7      59.437  42.855  52.999  1.00  0.00    -0.271 OA
BRANCH  59  62
ATOM     62  CA  LEU     8      62.174  41.926  52.651  1.00  0.00     0.160 C 
BRANCH  62  63
ATOM     63  CB  LEU     8      63.363  41.243  53.349  1.00  0.00     0.032 C 
BRANCH  63  64
ATOM     64  CG  LEU     8      63.150  39.800  53.821  1.00  0.00     0.002 C 
ATOM     65  CD2 LEU     8      63.164  39.683  55.348  1.00  0.00     0.000 C 
ATOM     66  CD1 LEU     8      64.269  38.933  53.242  1.00  0.00     0.000 C 
ENDBRANCH  63  64
ENDBRANCH  62  63
BRANCH  62  67
ATOM     67  C   LEU     8      62.521  42.016  51.150  1.00  0.00     0.254 C 
ATOM     68  O   LEU     8      62.637  40.966  50.515  1.00  0.00    -0.270 OA
ATOM     69  N   PRO     9      62.809  43.219  50.618  1.00  0.00    -0.312 N 
ATOM     70  CD  PRO     9      62.651  44.514  51.314  1.00  0.00     0.105 C 
ATOM     71  CA  PRO     9      63.153  43.460  49.195  1.00  0.00     0.163 C 
ATOM     72  CG  PRO     9      62.638  45.562  50.201  1.00  0.00     0.027 C 
ATOM     73  CB  PRO     9      63.534  44.939  49.136  1.00  0.00     0.034 C 
BRANCH  71  74
ATOM     74  C   PRO     9      64.259  42.609  48.536  1.00  0.00     0.251 C 
ATOM     75  N   ILE    10      63.905  41.437  48.008  1.00  0.00    -0.338 N 
ATOM     76  H   ILE    10      63.017  41.031  48.204  1.00 99.99     0.164 HD
ATOM     77  O   PRO     9      65.430  42.941  48.678  1.00  0.00    -0.271 OA
BRANCH  75  78
ATOM     78  CA  ILE    10      64.816  40.551  47.239  1.00  0.00     0.159 C 
BRANCH  78  79
ATOM     79  C   ILE    10      64.655  40.680  45.701  1.00  0.00     0.251 C 
ATOM     80  O   ILE    10      65.632  40.848  44.974  1.00  0.00    -0.271 OA
ATOM     81  N   CYS    11      63.414  40.592  45.228  1.00  0.00    -0.337 N 
ATOM     82  H   CYS    11      62.631  40.537  45.843  1.00 99.99     0.164 HD
BRANCH  81  83
ATOM     83  CA  CYS    11      63.050  40.537  43.791  1.00  0.00     0.170 C 
BRANCH  83  84
ATOM     84  C   CYS    11      62.242  41.763  43.324  1.00  0.00     0.252 C 
ATOM     85  O   CYS    11      62.786  42.849  43.149  1.00  0.00    -0.271 OA
ATOM     86  N   HIS    12      61.036  41.478  42.842  1.00  0.00    -0.336 N 
ATOM     87  H   HIS    12      60.717  40.534  42.800  1.00 99.99     0.164 HD
BRANCH  86  88
ATOM     88  CA  HIS    12      60.062  42.481  42.370  1.00  0.00     0.174 C 
BRANCH  88  89
ATOM     89  C   HIS    12      59.246  43.060  43.540  1.00  0.00     0.207 C 
ATOM     90  O   HIS    12      58.276  42.398  43.965  1.00 99.99    -0.646 OA
ATOM     91  OXT HIS    12      59.620  44.177  43.962  1.00 99.99    -0.646 OA
ENDBRANCH  88  89
BRANCH  88  92
ATOM     92  CB  HIS    12      59.111  41.807  41.372  1.00  0.00     0.078 C 
BRANCH  92  93
ATOM     93  CG  HIS    12      58.948  42.530  40.028  1.00  0.00     0.057 A 
ATOM     94  ND1 HIS    12      59.233  43.816  39.826  1.00  0.00    -0.338 N 
ATOM     95  CE1 HIS    12      59.353  44.020  38.519  1.00  0.00     0.175 A 
ATOM     96  HD1 HIS    12      59.318  44.518  40.533  1.00 99.99     0.167 HD
ATOM     97  NE2 HIS    12      59.097  42.872  37.903  1.00  0.00    -0.223 NA
ATOM     98  CD2 HIS    12      58.842  41.954  38.831  1.00  0.00     0.113 A 
ENDBRANCH  92  93
ENDBRANCH  88  92
ENDBRANCH  86  88
ENDBRANCH  83  84
BRANCH  83  99
ATOM     99  CB  CYS    11      62.154  39.323  43.549  1.00  0.00     0.085 C 
BRANCH  99 100
ATOM    100  SG  CYS    11      62.944  37.901  42.717  1.00  0.00    -0.165 SA
ATOM    101  HG  CYS    11      63.752  38.667  41.983  1.00 99.99     0.102 HD
ENDBRANCH  99 100
ENDBRANCH  83  99
ENDBRANCH  81  83
ENDBRANCH  78  79
BRANCH  78 102
ATOM    102  CB  ILE    10      64.633  39.106  47.767  1.00  0.00     0.029 C 
ATOM    103  CG2 ILE    10      64.431  38.071  46.647  1.00  0.00     0.002 C 
BRANCH 102 104
ATOM    104  CG1 ILE    10      65.834  38.718  48.653  1.00  0.00     0.002 C 
ATOM    105  CD  ILE    10      66.071  39.628  49.867  1.00  0.00     0.000 C 
ENDBRANCH 102 104
ENDBRANCH  78 102
ENDBRANCH  75  78
ENDBRANCH  71  74
ENDBRANCH  62  67
ENDBRANCH  59  62
ENDBRANCH  55  58
ENDBRANCH  46  51
ENDBRANCH  43  46
ENDBRANCH  40  42
ENDBRANCH  38  40
ENDBRANCH  35  36
BRANCH  35 106
ATOM    106  CB  PHE     4      58.648  38.735  43.965  1.00  0.00     0.056 C 
BRANCH 106 107
ATOM    107  CG  PHE     4      58.253  38.588  42.495  1.00  0.00    -0.044 A 
ATOM    108  CD2 PHE     4      59.198  38.202  41.550  1.00  0.00     0.008 A 
ATOM    109  CE2 PHE     4      58.832  38.063  40.218  1.00  0.00     0.001 A 
ATOM    110  CZ  PHE     4      57.519  38.301  39.828  1.00  0.00     0.000 A 
ATOM    111  CE1 PHE     4      56.572  38.678  40.771  1.00  0.00     0.001 A 
ATOM    112  CD1 PHE     4      56.941  38.828  42.103  1.00  0.00     0.008 A 
ENDBRANCH 106 107
ENDBRANCH  35 106
ENDBRANCH  33  35
ENDBRANCH  30  31
BRANCH  30 113
ATOM    113  CB  CYS     3      58.209  41.872  47.369  1.00  0.00     0.085 C 
BRANCH 113 114
ATOM    114  SG  CYS     3      58.922  43.553  47.501  1.00  0.00    -0.165 SA
ATOM    115  HG  CYS     3      59.264  43.458  48.783  1.00 99.99     0.102 HD
ENDBRANCH 113 114
ENDBRANCH  30 113
ENDBRANCH  28  30
ENDBRANCH  22  26
ENDBRANCH  20  22
ENDBRANCH   5  18
ENDBRANCH   1   5
TORSDOF 41
ENDMDL
MODEL 3
REMARK VINA RESULT:      -5.0      3.033     12.886
REMARK WARNING: 32 MAX_TORS EXCEEDED!!!
REMARK  41 active torsions:
REMARK  status: ('A' for Active; 'I' for Inactive)
REMARK    1  A    between atoms: N_1  and  CA_2 
REMARK    2  A    between atoms: CA_2  and  CB_5 
REMARK    3  A    between atoms: CA_2  and  C_3 
REMARK       I    between atoms: C_3  and  N_20 
REMARK    4  A    between atoms: CB_5  and  CG_6 
REMARK    5  A    between atoms: CG_6  and  CD_7 
REMARK    6  A    between atoms: CD_7  and  NE_8 
REMARK       I    between atoms: NE_8  and  CZ_9 
REMARK       I    between atoms: CZ_9  and  NH1_10 
REMARK    7  A    between atoms: N_20  and  CA_21 
REMARK    8  A    between atoms: CA_21  and  CB_24 
REMARK    9  A    between atoms: CA_21  and  C_22 
REMARK       I    between atoms: C_22  and  N_28 
REMARK   10  A    between atoms: N_28  and  CA_29 
REMARK   11  A    between atoms: CA_29  and  C_30 
REMARK   12  A    between atoms: CA_29  and  CB_32 
REMARK       I    between atoms: C_30  and  N_36 
REMARK   13  A    between atoms: CB_32  and  SG_33 
REMARK   14  A    between atoms: N_36  and  CA_37 
REMARK   15  A    between atoms: CA_37  and  C_38 
REMARK   16  A    between atoms: CA_37  and  CB_40 
REMARK       I    between atoms: C_38  and  N_48 
REMARK   17  A    between atoms: CB_40  and  CG_41 
REMARK   18  A    between atoms: N_48  and  CA_49 
REMARK   19  A    between atoms: CA_49  and  C_50 
REMARK       I    between atoms: C_50  and  N_54 
REMARK   20  A    between atoms: N_54  and  CA_55 
REMARK   21  A    between atoms: CA_55  and  CB_58 
REMARK   22  A    between atoms: CA_55  and  C_56 
REMARK       I    between atoms: C_56  and  N_63 
REMARK   23  A    between atoms: CB_58  and  CG1_59 
REMARK   24  A    between atoms: CA_64  and  C_65 
REMARK       I    between atoms: C_65  and  N_70 
REMARK   25  A    between atoms: N_70  and  CA_71 
REMARK   26  A    between atoms: CA_71  and  CB_74 
REMARK   27  A    between atoms: CA_71  and  C_72 
REMARK       I    between atoms: C_72  and  N_79 
REMARK   28  A    between atoms: CB_74  and  CG_75 
REMARK   29  A    between atoms: CA_80  and  C_81 
REMARK       I    between atoms: C_81  and  N_86 
REMARK   30  A    between atoms: N_86  and  CA_87 
REMARK   31  A    between atoms: CA_87  and  C_88 
REMARK   32  A    between atoms: CA_87  and  CB_90 
REMARK       I    between atoms: C_88  and  N_95 
REMARK   33  A    between atoms: CB_90  and  CG1_91 
REMARK   34  A    between atoms: N_95  and  CA_96 
REMARK   35  A    between atoms: CA_96  and  C_97 
REMARK   36  A    between atoms: CA_96  and  CB_99 
REMARK       I    between atoms: C_97  and  N_103 
REMARK   37  A    between atoms: CB_99  and  SG_100 
REMARK   38  A    between atoms: N_103  and  CA_104 
REMARK   39  A    between atoms: CA_104  and  C_105 
REMARK   40  A    between atoms: CA_104  and  CB_107 
REMARK   41  A    between atoms: CB_107  and  CG_108 
ROOT
ATOM      1  N   ARG     1      56.526  39.904  47.820  1.00  0.00    -0.058 N 
ATOM      2  H1  ARG     1      56.293  39.045  48.277  1.00 99.99     0.276 HD
ATOM      3  H2  ARG     1      55.965  39.980  47.010  1.00 99.99     0.276 HD
ATOM      4  H3  ARG     1      57.458  39.855  47.480  1.00 99.99     0.276 HD
ENDROOT
BRANCH   1   5
ATOM      5  CA  ARG     1      56.316  41.045  48.755  1.00  0.00     0.255 C 
BRANCH   5   6
ATOM      6  CB  ARG     1      56.506  42.399  48.041  1.00  0.00     0.042 C 
BRANCH   6   7
ATOM      7  CG  ARG     1      57.732  43.238  48.421  1.00  0.00     0.027 C 
BRANCH   7   8
ATOM      8  CD  ARG     1      58.986  42.564  47.846  1.00  0.00     0.116 C 
BRANCH   8   9
ATOM      9  NE  ARG     1      59.348  43.094  46.516  1.00  0.00    -0.212 N 
ATOM     10  HE  ARG     1      58.672  43.697  46.100  1.00 99.99     0.178 HD
ATOM     11  CZ  ARG     1      60.459  42.812  45.823  1.00  0.00     0.666 C 
ATOM     12  NH2 ARG     1      60.716  43.447  44.685  1.00  0.00    -0.235 N 
ATOM     13  NH1 ARG     1      61.373  41.955  46.260  1.00  0.00    -0.235 N 
ATOM     14 2HH2 ARG     1      60.086  44.135  44.333  1.00 99.99     0.174 HD
ATOM     15 1HH2 ARG     1      61.551  43.233  44.182  1.00 99.99     0.174 HD
ATOM     16 1HH1 ARG     1      62.193  41.770  45.723  1.00 99.99     0.174 HD
ATOM     17 2HH1 ARG     1      61.223  41.488  47.129  1.00 99.99     0.174 HD
ENDBRANCH   8   9
ENDBRANCH   7   8
ENDBRANCH   6   7
ENDBRANCH   5   6
BRANCH   5  18
ATOM     18  C   ARG     1      54.916  41.052  49.428  1.00  0.00     0.259 C 
ATOM     19  O   ARG     1      54.283  42.090  49.632  1.00  0.00    -0.271 OA
ATOM     20  N   VAL     2      54.475  39.862  49.831  1.00  0.00    -0.338 N 
ATOM     21  H   VAL     2      55.101  39.098  49.983  1.00 99.99     0.164 HD
BRANCH  20  22
ATOM     22  CA  VAL     2      53.097  39.570  50.285  1.00  0.00     0.159 C 
BRANCH  22  23
ATOM     23  CB  VAL     2      52.334  38.701  49.256  1.00  0.00     0.029 C 
ATOM     24  CG1 VAL     2      50.932  39.259  48.995  1.00  0.00     0.002 C 
ATOM     25  CG2 VAL     2      53.064  38.551  47.912  1.00  0.00     0.002 C 
ENDBRANCH  22  23
BRANCH  22  26
ATOM     26  C   VAL     2      53.164  38.879  51.657  1.00  0.00     0.251 C 
ATOM     27  O   VAL     2      52.283  39.106  52.486  1.00  0.00    -0.271 OA
ATOM     28  N   CYS     3      54.128  37.974  51.826  1.00  0.00    -0.337 N 
ATOM     29  H   CYS     3      54.807  37.775  51.121  1.00 99.99     0.164 HD
BRANCH  28  30
ATOM     30  CA  CYS     3      54.276  37.168  53.059  1.00  0.00     0.170 C 
BRANCH  30  31
ATOM     31  C   CYS     3      55.169  37.914  54.064  1.00  0.00     0.252 C 
ATOM     32  O   CYS     3      54.792  38.063  55.226  1.00  0.00    -0.271 OA
ATOM     33  N   PHE     4      56.364  38.297  53.619  1.00  0.00    -0.337 N 
ATOM     34  H   PHE     4      56.626  38.188  52.659  1.00 99.99     0.164 HD
BRANCH  33  35
ATOM     35  CA  PHE     4      57.360  39.022  54.445  1.00  0.00     0.164 C 
BRANCH  35  36
ATOM     36  C   PHE     4      57.651  40.424  53.867  1.00  0.00     0.251 C 
ATOM     37  O   PHE     4      57.918  41.351  54.626  1.00  0.00    -0.271 OA
ATOM     38  N   ALA     5      57.579  40.562  52.540  1.00  0.00    -0.338 N 
ATOM     39  H   ALA     5      57.416  39.776  51.949  1.00 99.99     0.164 HD
BRANCH  38  40
ATOM     40  CA  ALA     5      57.908  41.829  51.840  1.00  0.00     0.159 C 
ATOM     41  CB  ALA     5      56.821  42.865  52.146  1.00  0.00     0.034 C 
BRANCH  40  42
ATOM     42  C   ALA     5      59.300  42.451  52.086  1.00  0.00     0.251 C 
ATOM     43  N   ILE     6      60.297  42.042  51.302  1.00  0.00    -0.338 N 
ATOM     44  H   ILE     6      60.135  41.441  50.526  1.00 99.99     0.164 HD
ATOM     45  O   ALA     5      59.478  43.228  53.018  1.00  0.00    -0.271 OA
BRANCH  43  46
ATOM     46  CA  ILE     6      61.710  42.479  51.444  1.00  0.00     0.160 C 
BRANCH  46  47
ATOM     47  CB  ILE     6      62.543  41.352  52.092  1.00  0.00     0.029 C 
ATOM     48  CG2 ILE     6      62.506  41.521  53.619  1.00  0.00     0.002 C 
BRANCH  47  49
ATOM     49  CG1 ILE     6      62.107  39.947  51.629  1.00  0.00     0.002 C 
ATOM     50  CD  ILE     6      61.809  38.970  52.773  1.00  0.00     0.000 C 
ENDBRANCH  47  49
ENDBRANCH  46  47
BRANCH  46  51
ATOM     51  C   ILE     6      62.331  42.959  50.110  1.00  0.00     0.254 C 
ATOM     52  O   ILE     6      62.390  42.148  49.189  1.00  0.00    -0.270 OA
ATOM     53  N   PRO     7      62.849  44.194  49.991  1.00  0.00    -0.312 N 
ATOM     54  CD  PRO     7      62.931  45.213  51.056  1.00  0.00     0.105 C 
ATOM     55  CA  PRO     7      63.403  44.724  48.723  1.00  0.00     0.163 C 
ATOM     56  CG  PRO     7      63.915  46.249  50.513  1.00  0.00     0.027 C 
ATOM     57  CB  PRO     7      63.682  46.205  49.002  1.00  0.00     0.034 C 
BRANCH  55  58
ATOM     58  C   PRO     7      64.616  43.959  48.152  1.00  0.00     0.251 C 
ATOM     59  N   LEU     8      64.304  43.110  47.174  1.00  0.00    -0.338 N 
ATOM     60  H   LEU     8      63.341  42.978  46.936  1.00 99.99     0.164 HD
ATOM     61  O   PRO     7      65.766  44.161  48.537  1.00  0.00    -0.271 OA
BRANCH  59  62
ATOM     62  CA  LEU     8      65.229  42.213  46.442  1.00  0.00     0.160 C 
BRANCH  62  63
ATOM     63  CB  LEU     8      65.004  40.740  46.827  1.00  0.00     0.032 C 
BRANCH  63  64
ATOM     64  CG  LEU     8      65.905  40.170  47.930  1.00  0.00     0.002 C 
ATOM     65  CD2 LEU     8      66.727  38.972  47.443  1.00  0.00     0.000 C 
ATOM     66  CD1 LEU     8      65.019  39.729  49.096  1.00  0.00     0.000 C 
ENDBRANCH  63  64
ENDBRANCH  62  63
BRANCH  62  67
ATOM     67  C   LEU     8      64.994  42.323  44.921  1.00  0.00     0.254 C 
ATOM     68  O   LEU     8      63.868  42.637  44.527  1.00  0.00    -0.270 OA
ATOM     69  N   PRO     9      65.978  41.954  44.080  1.00  0.00    -0.312 N 
ATOM     70  CD  PRO     9      67.357  41.609  44.488  1.00  0.00     0.105 C 
ATOM     71  CA  PRO     9      65.898  42.011  42.599  1.00  0.00     0.163 C 
ATOM     72  CG  PRO     9      68.189  41.727  43.210  1.00  0.00     0.027 C 
ATOM     73  CB  PRO     9      67.191  41.353  42.119  1.00  0.00     0.034 C 
BRANCH  71  74
ATOM     74  C   PRO     9      64.689  41.369  41.887  1.00  0.00     0.251 C 
ATOM     75  N   ILE    10      64.118  40.316  42.470  1.00  0.00    -0.338 N 
ATOM     76  H   ILE    10      64.565  39.835  43.219  1.00 99.99     0.164 HD
ATOM     77  O   PRO     9      64.415  41.721  40.746  1.00  0.00    -0.271 OA
BRANCH  75  78
ATOM     78  CA  ILE    10      62.882  39.652  41.981  1.00  0.00     0.159 C 
BRANCH  78  79
ATOM     79  C   ILE    10      61.586  40.452  42.285  1.00  0.00     0.251 C 
ATOM     80  O   ILE    10      61.217  40.644  43.441  1.00  0.00    -0.271 OA
ATOM     81  N   CYS    11      60.919  40.916  41.231  1.00  0.00    -0.337 N 
ATOM     82  H   CYS    11      61.193  40.678  40.301  1.00 99.99     0.164 HD
BRANCH  81  83
ATOM     83  CA  CYS    11      59.749  41.826  41.294  1.00  0.00     0.170 C 
BRANCH  83  84
ATOM     84  C   CYS    11      58.421  41.088  41.551  1.00  0.00     0.252 C 
ATOM     85  O   CYS    11      57.663  40.811  40.626  1.00  0.00    -0.271 OA
ATOM     86  N   HIS    12      58.327  40.524  42.752  1.00  0.00    -0.336 N 
ATOM     87  H   HIS    12      59.078  40.592  43.404  1.00 99.99     0.164 HD
BRANCH  86  88
ATOM     88  CA  HIS    12      57.142  39.797  43.247  1.00  0.00     0.174 C 
BRANCH  88  89
ATOM     89  C   HIS    12      56.571  40.460  44.513  1.00  0.00     0.207 C 
ATOM     90  O   HIS    12      57.264  41.323  45.090  1.00 99.99    -0.646 OA
ATOM     91  OXT HIS    12      55.443  40.056  44.877  1.00 99.99    -0.646 OA
ENDBRANCH  88  89
BRANCH  88  92
ATOM     92  CB  HIS    12      57.553  38.355  43.570  1.00  0.00     0.078 C 
BRANCH  92  93
ATOM     93  CG  HIS    12      58.403  38.182  44.836  1.00  0.00     0.057 A 
ATOM     94  ND1 HIS    12      59.397  38.996  45.192  1.00  0.00    -0.338 N 
ATOM     95  CE1 HIS    12      59.655  38.804  46.481  1.00  0.00     0.175 A 
ATOM     96  HD1 HIS    12      59.885  39.626  44.589  1.00 99.99     0.167 HD
ATOM     97  NE2 HIS    12      58.856  37.838  46.918  1.00  0.00    -0.223 NA
ATOM     98  CD2 HIS    12      58.087  37.450  45.904  1.00  0.00     0.113 A 
ENDBRANCH  92  93
ENDBRANCH  88  92
ENDBRANCH  86  88
ENDBRANCH  83  84
BRANCH  83  99
ATOM     99  CB  CYS    11      59.589  42.527  39.946  1.00  0.00     0.085 C 
BRANCH  99 100
ATOM    100  SG  CYS    11      59.541  44.353  39.998  1.00  0.00    -0.165 SA
ATOM    101  HG  CYS    11      59.543  44.403  41.330  1.00 99.99     0.102 HD
ENDBRANCH  99 100
ENDBRANCH  83  99
ENDBRANCH  81  83
ENDBRANCH  78  79
BRANCH  78 102
ATOM    102  CB  ILE    10      62.866  38.205  42.536  1.00  0.00     0.029 C 
ATOM    103  CG2 ILE    10      63.248  37.148  41.486  1.00  0.00     0.002 C 
BRANCH 102 104
ATOM    104  CG1 ILE    10      63.791  38.108  43.766  1.00  0.00     0.002 C 
ATOM    105  CD  ILE    10      63.072  38.014  45.119  1.00  0.00     0.000 C 
ENDBRANCH 102 104
ENDBRANCH  78 102
ENDBRANCH  75  78
ENDBRANCH  71  74
ENDBRANCH  62  67
ENDBRANCH  59  62
ENDBRANCH  55  58
ENDBRANCH  46  51
ENDBRANCH  43  46
ENDBRANCH  40  42
ENDBRANCH  38  40
ENDBRANCH  35  36
BRANCH  35 106
ATOM    106  CB  PHE     4      58.657  38.206  54.560  1.00  0.00     0.056 C 
BRANCH 106 107
ATOM    107  CG  PHE     4      59.385  38.372  55.895  1.00  0.00    -0.044 A 
ATOM    108  CD2 PHE     4      60.412  39.301  56.023  1.00  0.00     0.008 A 
ATOM    109  CE2 PHE     4      61.064  39.450  57.240  1.00  0.00     0.001 A 
ATOM    110  CZ  PHE     4      60.686  38.680  58.332  1.00  0.00     0.000 A 
ATOM    111  CE1 PHE     4      59.656  37.757  58.209  1.00  0.00     0.001 A 
ATOM    112  CD1 PHE     4      59.010  37.599  56.988  1.00  0.00     0.008 A 
ENDBRANCH 106 107
ENDBRANCH  35 106
ENDBRANCH  33  35
ENDBRANCH  30  31
BRANCH  30 113
ATOM    113  CB  CYS     3      54.947  35.824  52.733  1.00  0.00     0.085 C 
BRANCH 113 114
ATOM    114  SG  CYS     3      55.137  34.660  54.134  1.00  0.00    -0.165 SA
ATOM    115  HG  CYS     3      56.284  34.130  53.717  1.00 99.99     0.102 HD
ENDBRANCH 113 114
ENDBRANCH  30 113
ENDBRANCH  28  30
ENDBRANCH  22  26
ENDBRANCH  20  22
ENDBRANCH   5  18
ENDBRANCH   1   5
TORSDOF 41
ENDMDL
MODEL 4
REMARK VINA RESULT:      -5.0      3.003      9.135
REMARK WARNING: 32 MAX_TORS EXCEEDED!!!
REMARK  41 active torsions:
REMARK  status: ('A' for Active; 'I' for Inactive)
REMARK    1  A    between atoms: N_1  and  CA_2 
REMARK    2  A    between atoms: CA_2  and  CB_5 
REMARK    3  A    between atoms: CA_2  and  C_3 
REMARK       I    between atoms: C_3  and  N_20 
REMARK    4  A    between atoms: CB_5  and  CG_6 
REMARK    5  A    between atoms: CG_6  and  CD_7 
REMARK    6  A    between atoms: CD_7  and  NE_8 
REMARK       I    between atoms: NE_8  and  CZ_9 
REMARK       I    between atoms: CZ_9  and  NH1_10 
REMARK    7  A    between atoms: N_20  and  CA_21 
REMARK    8  A    between atoms: CA_21  and  CB_24 
REMARK    9  A    between atoms: CA_21  and  C_22 
REMARK       I    between atoms: C_22  and  N_28 
REMARK   10  A    between atoms: N_28  and  CA_29 
REMARK   11  A    between atoms: CA_29  and  C_30 
REMARK   12  A    between atoms: CA_29  and  CB_32 
REMARK       I    between atoms: C_30  and  N_36 
REMARK   13  A    between atoms: CB_32  and  SG_33 
REMARK   14  A    between atoms: N_36  and  CA_37 
REMARK   15  A    between atoms: CA_37  and  C_38 
REMARK   16  A    between atoms: CA_37  and  CB_40 
REMARK       I    between atoms: C_38  and  N_48 
REMARK   17  A    between atoms: CB_40  and  CG_41 
REMARK   18  A    between atoms: N_48  and  CA_49 
REMARK   19  A    between atoms: CA_49  and  C_50 
REMARK       I    between atoms: C_50  and  N_54 
REMARK   20  A    between atoms: N_54  and  CA_55 
REMARK   21  A    between atoms: CA_55  and  CB_58 
REMARK   22  A    between atoms: CA_55  and  C_56 
REMARK       I    between atoms: C_56  and  N_63 
REMARK   23  A    between atoms: CB_58  and  CG1_59 
REMARK   24  A    between atoms: CA_64  and  C_65 
REMARK       I    between atoms: C_65  and  N_70 
REMARK   25  A    between atoms: N_70  and  CA_71 
REMARK   26  A    between atoms: CA_71  and  CB_74 
REMARK   27  A    between atoms: CA_71  and  C_72 
REMARK       I    between atoms: C_72  and  N_79 
REMARK   28  A    between atoms: CB_74  and  CG_75 
REMARK   29  A    between atoms: CA_80  and  C_81 
REMARK       I    between atoms: C_81  and  N_86 
REMARK   30  A    between atoms: N_86  and  CA_87 
REMARK   31  A    between atoms: CA_87  and  C_88 
REMARK   32  A    between atoms: CA_87  and  CB_90 
REMARK       I    between atoms: C_88  and  N_95 
REMARK   33  A    between atoms: CB_90  and  CG1_91 
REMARK   34  A    between atoms: N_95  and  CA_96 
REMARK   35  A    between atoms: CA_96  and  C_97 
REMARK   36  A    between atoms: CA_96  and  CB_99 
REMARK       I    between atoms: C_97  and  N_103 
REMARK   37  A    between atoms: CB_99  and  SG_100 
REMARK   38  A    between atoms: N_103  and  CA_104 
REMARK   39  A    between atoms: CA_104  and  C_105 
REMARK   40  A    between atoms: CA_104  and  CB_107 
REMARK   41  A    between atoms: CB_107  and  CG_108 
ROOT
ATOM      1  N   ARG     1      61.045  43.404  43.370  1.00  0.00    -0.058 N 
ATOM      2  H1  ARG     1      61.642  43.358  44.170  1.00 99.99     0.276 HD
ATOM      3  H2  ARG     1      61.579  43.735  42.607  1.00 99.99     0.276 HD
ATOM      4  H3  ARG     1      60.352  44.101  43.514  1.00 99.99     0.276 HD
ENDROOT
BRANCH   1   5
ATOM      5  CA  ARG     1      60.458  42.061  43.101  1.00  0.00     0.255 C 
BRANCH   5   6
ATOM      6  CB  ARG     1      59.689  42.040  41.765  1.00  0.00     0.042 C 
BRANCH   6   7
ATOM      7  CG  ARG     1      58.192  41.712  41.810  1.00  0.00     0.027 C 
BRANCH   7   8
ATOM      8  CD  ARG     1      58.018  40.193  41.666  1.00  0.00     0.116 C 
BRANCH   8   9
ATOM      9  NE  ARG     1      58.261  39.478  42.935  1.00  0.00    -0.212 N 
ATOM     10  HE  ARG     1      59.209  39.220  43.103  1.00 99.99     0.178 HD
ATOM     11  CZ  ARG     1      57.338  39.124  43.838  1.00  0.00     0.666 C 
ATOM     12  NH2 ARG     1      57.706  38.584  44.994  1.00  0.00    -0.235 N 
ATOM     13  NH1 ARG     1      56.042  39.351  43.659  1.00  0.00    -0.235 N 
ATOM     14 2HH2 ARG     1      58.669  38.433  45.201  1.00 99.99     0.174 HD
ATOM     15 1HH2 ARG     1      57.008  38.331  45.662  1.00 99.99     0.174 HD
ATOM     16 1HH1 ARG     1      55.379  39.080  44.354  1.00 99.99     0.174 HD
ATOM     17 2HH1 ARG     1      55.739  39.787  42.814  1.00 99.99     0.174 HD
ENDBRANCH   8   9
ENDBRANCH   7   8
ENDBRANCH   6   7
ENDBRANCH   5   6
BRANCH   5  18
ATOM     18  C   ARG     1      61.508  40.916  43.066  1.00  0.00     0.259 C 
ATOM     19  O   ARG     1      61.337  39.840  43.642  1.00  0.00    -0.271 OA
ATOM     20  N   VAL     2      62.638  41.203  42.423  1.00  0.00    -0.338 N 
ATOM     21  H   VAL     2      62.921  42.148  42.262  1.00 99.99     0.164 HD
BRANCH  20  22
ATOM     22  CA  VAL     2      63.685  40.224  42.055  1.00  0.00     0.159 C 
BRANCH  22  23
ATOM     23  CB  VAL     2      64.499  40.701  40.828  1.00  0.00     0.029 C 
ATOM     24  CG1 VAL     2      65.269  39.539  40.192  1.00  0.00     0.002 C 
ATOM     25  CG2 VAL     2      63.645  41.378  39.745  1.00  0.00     0.002 C 
ENDBRANCH  22  23
BRANCH  22  26
ATOM     26  C   VAL     2      64.596  39.993  43.272  1.00  0.00     0.251 C 
ATOM     27  O   VAL     2      65.245  38.949  43.345  1.00  0.00    -0.271 OA
ATOM     28  N   CYS     3      64.715  41.002  44.133  1.00  0.00    -0.337 N 
ATOM     29  H   CYS     3      64.210  41.859  44.030  1.00 99.99     0.164 HD
BRANCH  28  30
ATOM     30  CA  CYS     3      65.613  40.964  45.309  1.00  0.00     0.170 C 
BRANCH  30  31
ATOM     31  C   CYS     3      64.798  41.196  46.593  1.00  0.00     0.252 C 
ATOM     32  O   CYS     3      63.600  40.921  46.616  1.00  0.00    -0.271 OA
ATOM     33  N   PHE     4      65.482  41.620  47.654  1.00  0.00    -0.337 N 
ATOM     34  H   PHE     4      66.451  41.863  47.592  1.00 99.99     0.164 HD
BRANCH  33  35
ATOM     35  CA  PHE     4      64.868  41.892  48.977  1.00  0.00     0.164 C 
BRANCH  35  36
ATOM     36  C   PHE     4      64.716  40.593  49.799  1.00  0.00     0.251 C 
ATOM     37  O   PHE     4      63.667  39.957  49.744  1.00  0.00    -0.271 OA
ATOM     38  N   ALA     5      65.753  40.229  50.560  1.00  0.00    -0.338 N 
ATOM     39  H   ALA     5      66.611  40.737  50.537  1.00 99.99     0.164 HD
BRANCH  38  40
ATOM     40  CA  ALA     5      65.779  38.968  51.342  1.00  0.00     0.159 C 
ATOM     41  CB  ALA     5      67.209  38.714  51.831  1.00  0.00     0.034 C 
BRANCH  40  42
ATOM     42  C   ALA     5      64.795  38.830  52.525  1.00  0.00     0.251 C 
ATOM     43  N   ILE     6      64.737  39.842  53.390  1.00  0.00    -0.338 N 
ATOM     44  H   ILE     6      65.227  40.692  53.228  1.00 99.99     0.164 HD
ATOM     45  O   ALA     5      64.161  37.792  52.689  1.00  0.00    -0.271 OA
BRANCH  43  46
ATOM     46  CA  ILE     6      63.903  39.847  54.620  1.00  0.00     0.160 C 
BRANCH  46  47
ATOM     47  CB  ILE     6      64.288  41.052  55.506  1.00  0.00     0.029 C 
ATOM     48  CG2 ILE     6      63.205  41.244  56.580  1.00  0.00     0.002 C 
BRANCH  47  49
ATOM     49  CG1 ILE     6      65.707  40.929  56.096  1.00  0.00     0.002 C 
ATOM     50  CD  ILE     6      66.208  42.194  56.805  1.00  0.00     0.000 C 
ENDBRANCH  47  49
ENDBRANCH  46  47
BRANCH  46  51
ATOM     51  C   ILE     6      62.384  39.816  54.320  1.00  0.00     0.254 C 
ATOM     52  O   ILE     6      61.740  38.870  54.765  1.00  0.00    -0.270 OA
ATOM     53  N   PRO     7      61.812  40.752  53.544  1.00  0.00    -0.312 N 
ATOM     54  CD  PRO     7      62.502  41.869  52.870  1.00  0.00     0.105 C 
ATOM     55  CA  PRO     7      60.356  40.802  53.272  1.00  0.00     0.163 C 
ATOM     56  CG  PRO     7      61.486  42.380  51.848  1.00  0.00     0.027 C 
ATOM     57  CB  PRO     7      60.139  42.124  52.526  1.00  0.00     0.034 C 
BRANCH  55  58
ATOM     58  C   PRO     7      59.768  39.574  52.545  1.00  0.00     0.251 C 
ATOM     59  N   LEU     8      58.474  39.373  52.789  1.00  0.00    -0.338 N 
ATOM     60  H   LEU     8      58.010  39.962  53.451  1.00 99.99     0.164 HD
ATOM     61  O   PRO     7      60.431  38.882  51.775  1.00  0.00    -0.271 OA
BRANCH  59  62
ATOM     62  CA  LEU     8      57.628  38.273  52.270  1.00  0.00     0.160 C 
BRANCH  62  63
ATOM     63  CB  LEU     8      56.282  38.203  53.012  1.00  0.00     0.032 C 
BRANCH  63  64
ATOM     64  CG  LEU     8      56.057  39.228  54.131  1.00  0.00     0.002 C 
ATOM     65  CD2 LEU     8      56.235  38.613  55.523  1.00  0.00     0.000 C 
ATOM     66  CD1 LEU     8      54.635  39.777  54.003  1.00  0.00     0.000 C 
ENDBRANCH  63  64
ENDBRANCH  62  63
BRANCH  62  67
ATOM     67  C   LEU     8      57.310  38.498  50.777  1.00  0.00     0.254 C 
ATOM     68  O   LEU     8      57.106  39.652  50.392  1.00  0.00    -0.270 OA
ATOM     69  N   PRO     9      57.141  37.429  49.977  1.00  0.00    -0.312 N 
ATOM     70  CD  PRO     9      57.410  36.028  50.366  1.00  0.00     0.105 C 
ATOM     71  CA  PRO     9      56.839  37.491  48.525  1.00  0.00     0.163 C 
ATOM     72  CG  PRO     9      57.533  35.267  49.046  1.00  0.00     0.027 C 
ATOM     73  CB  PRO     9      56.597  36.037  48.121  1.00  0.00     0.034 C 
BRANCH  71  74
ATOM     74  C   PRO     9      55.668  38.370  48.039  1.00  0.00     0.251 C 
ATOM     75  N   ILE    10      54.818  38.829  48.958  1.00  0.00    -0.338 N 
ATOM     76  H   ILE    10      54.811  38.462  49.884  1.00 99.99     0.164 HD
ATOM     77  O   PRO     9      55.453  38.464  46.837  1.00  0.00    -0.271 OA
BRANCH  75  78
ATOM     78  CA  ILE    10      53.708  39.776  48.678  1.00  0.00     0.159 C 
BRANCH  78  79
ATOM     79  C   ILE    10      54.047  41.250  49.030  1.00  0.00     0.251 C 
ATOM     80  O   ILE    10      53.175  42.026  49.410  1.00  0.00    -0.271 OA
ATOM     81  N   CYS    11      55.323  41.608  48.904  1.00  0.00    -0.337 N 
ATOM     82  H   CYS    11      55.998  40.983  48.517  1.00 99.99     0.164 HD
BRANCH  81  83
ATOM     83  CA  CYS    11      55.890  42.912  49.327  1.00  0.00     0.170 C 
BRANCH  83  84
ATOM     84  C   CYS    11      56.691  43.614  48.214  1.00  0.00     0.252 C 
ATOM     85  O   CYS    11      56.311  44.680  47.739  1.00  0.00    -0.271 OA
ATOM     86  N   HIS    12      57.928  43.154  48.051  1.00  0.00    -0.336 N 
ATOM     87  H   HIS    12      58.274  42.416  48.624  1.00 99.99     0.164 HD
BRANCH  86  88
ATOM     88  CA  HIS    12      58.874  43.637  47.027  1.00  0.00     0.174 C 
BRANCH  88  89
ATOM     89  C   HIS    12      58.350  43.355  45.607  1.00  0.00     0.207 C 
ATOM     90  O   HIS    12      58.452  44.259  44.752  1.00 99.99    -0.646 OA
ATOM     91  OXT HIS    12      57.837  42.227  45.432  1.00 99.99    -0.646 OA
ENDBRANCH  88  89
BRANCH  88  92
ATOM     92  CB  HIS    12      60.216  42.921  47.225  1.00  0.00     0.078 C 
BRANCH  92  93
ATOM     93  CG  HIS    12      60.125  41.405  47.450  1.00  0.00     0.057 A 
ATOM     94  ND1 HIS    12      60.318  40.490  46.500  1.00  0.00    -0.338 N 
ATOM     95  CE1 HIS    12      60.548  39.320  47.084  1.00  0.00     0.175 A 
ATOM     96  HD1 HIS    12      60.271  40.648  45.514  1.00 99.99     0.167 HD
ATOM     97  NE2 HIS    12      60.453  39.494  48.397  1.00  0.00    -0.223 NA
ATOM     98  CD2 HIS    12      60.188  40.778  48.624  1.00  0.00     0.113 A 
ENDBRANCH  92  93
ENDBRANCH  88  92
ENDBRANCH  86  88
ENDBRANCH  83  84
BRANCH  83  99
ATOM     99  CB  CYS    11      56.873  42.680  50.474  1.00  0.00     0.085 C 
BRANCH  99 100
ATOM    100  SG  CYS    11      56.155  42.688  52.155  1.00  0.00    -0.165 SA
ATOM    101  HG  CYS    11      54.968  43.131  51.741  1.00 99.99     0.102 HD
ENDBRANCH  99 100
ENDBRANCH  83  99
ENDBRANCH  81  83
ENDBRANCH  78  79
BRANCH  78 102
ATOM    102  CB  ILE    10      52.436  39.243  49.383  1.00  0.00     0.029 C 
ATOM    103  CG2 ILE    10      51.754  38.094  48.620  1.00  0.00     0.002 C 
BRANCH 102 104
ATOM    104  CG1 ILE    10      52.781  38.809  50.822  1.00  0.00     0.002 C 
ATOM    105  CD  ILE    10      51.634  38.934  51.835  1.00  0.00     0.000 C 
ENDBRANCH 102 104
ENDBRANCH  78 102
ENDBRANCH  75  78
ENDBRANCH  71  74
ENDBRANCH  62  67
ENDBRANCH  59  62
ENDBRANCH  55  58
ENDBRANCH  46  51
ENDBRANCH  43  46
ENDBRANCH  40  42
ENDBRANCH  38  40
ENDBRANCH  35  36
BRANCH  35 106
ATOM    106  CB  PHE     4      63.506  42.583  48.805  1.00  0.00     0.056 C 
BRANCH 106 107
ATOM    107  CG  PHE     4      63.535  44.093  49.046  1.00  0.00    -0.044 A 
ATOM    108  CD2 PHE     4      64.725  44.800  48.918  1.00  0.00     0.008 A 
ATOM    109  CE2 PHE     4      64.743  46.172  49.131  1.00  0.00     0.001 A 
ATOM    110  CZ  PHE     4      63.571  46.841  49.463  1.00  0.00     0.000 A 
ATOM    111  CE1 PHE     4      62.380  46.138  49.583  1.00  0.00     0.001 A 
ATOM    112  CD1 PHE     4      62.364  44.763  49.380  1.00  0.00     0.008 A 
ENDBRANCH 106 107
ENDBRANCH  35 106
ENDBRANCH  33  35
ENDBRANCH  30  31
BRANCH  30 113
ATOM    113  CB  CYS     3      66.665  42.078  45.206  1.00  0.00     0.085 C 
BRANCH 113 114
ATOM    114  SG  CYS     3      68.152  41.691  44.210  1.00  0.00    -0.165 SA
ATOM    115  HG  CYS     3      67.600  41.957  43.029  1.00 99.99     0.102 HD
ENDBRANCH 113 114
ENDBRANCH  30 113
ENDBRANCH  28  30
ENDBRANCH  22  26
ENDBRANCH  20  22
ENDBRANCH   5  18
ENDBRANCH   1   5
TORSDOF 41
ENDMDL
MODEL 5
REMARK VINA RESULT:      -4.9      3.455     10.425
REMARK WARNING: 32 MAX_TORS EXCEEDED!!!
REMARK  41 active torsions:
REMARK  status: ('A' for Active; 'I' for Inactive)
REMARK    1  A    between atoms: N_1  and  CA_2 
REMARK    2  A    between atoms: CA_2  and  CB_5 
REMARK    3  A    between atoms: CA_2  and  C_3 
REMARK       I    between atoms: C_3  and  N_20 
REMARK    4  A    between atoms: CB_5  and  CG_6 
REMARK    5  A    between atoms: CG_6  and  CD_7 
REMARK    6  A    between atoms: CD_7  and  NE_8 
REMARK       I    between atoms: NE_8  and  CZ_9 
REMARK       I    between atoms: CZ_9  and  NH1_10 
REMARK    7  A    between atoms: N_20  and  CA_21 
REMARK    8  A    between atoms: CA_21  and  CB_24 
REMARK    9  A    between atoms: CA_21  and  C_22 
REMARK       I    between atoms: C_22  and  N_28 
REMARK   10  A    between atoms: N_28  and  CA_29 
REMARK   11  A    between atoms: CA_29  and  C_30 
REMARK   12  A    between atoms: CA_29  and  CB_32 
REMARK       I    between atoms: C_30  and  N_36 
REMARK   13  A    between atoms: CB_32  and  SG_33 
REMARK   14  A    between atoms: N_36  and  CA_37 
REMARK   15  A    between atoms: CA_37  and  C_38 
REMARK   16  A    between atoms: CA_37  and  CB_40 
REMARK       I    between atoms: C_38  and  N_48 
REMARK   17  A    between atoms: CB_40  and  CG_41 
REMARK   18  A    between atoms: N_48  and  CA_49 
REMARK   19  A    between atoms: CA_49  and  C_50 
REMARK       I    between atoms: C_50  and  N_54 
REMARK   20  A    between atoms: N_54  and  CA_55 
REMARK   21  A    between atoms: CA_55  and  CB_58 
REMARK   22  A    between atoms: CA_55  and  C_56 
REMARK       I    between atoms: C_56  and  N_63 
REMARK   23  A    between atoms: CB_58  and  CG1_59 
REMARK   24  A    between atoms: CA_64  and  C_65 
REMARK       I    between atoms: C_65  and  N_70 
REMARK   25  A    between atoms: N_70  and  CA_71 
REMARK   26  A    between atoms: CA_71  and  CB_74 
REMARK   27  A    between atoms: CA_71  and  C_72 
REMARK       I    between atoms: C_72  and  N_79 
REMARK   28  A    between atoms: CB_74  and  CG_75 
REMARK   29  A    between atoms: CA_80  and  C_81 
REMARK       I    between atoms: C_81  and  N_86 
REMARK   30  A    between atoms: N_86  and  CA_87 
REMARK   31  A    between atoms: CA_87  and  C_88 
REMARK   32  A    between atoms: CA_87  and  CB_90 
REMARK       I    between atoms: C_88  and  N_95 
REMARK   33  A    between atoms: CB_90  and  CG1_91 
REMARK   34  A    between atoms: N_95  and  CA_96 
REMARK   35  A    between atoms: CA_96  and  C_97 
REMARK   36  A    between atoms: CA_96  and  CB_99 
REMARK       I    between atoms: C_97  and  N_103 
REMARK   37  A    between atoms: CB_99  and  SG_100 
REMARK   38  A    between atoms: N_103  and  CA_104 
REMARK   39  A    between atoms: CA_104  and  C_105 
REMARK   40  A    between atoms: CA_104  and  CB_107 
REMARK   41  A    between atoms: CB_107  and  CG_108 
ROOT
ATOM      1  N   ARG     1      51.074  39.834  49.049  1.00  0.00    -0.058 N 
ATOM      2  H1  ARG     1      51.407  39.675  48.119  1.00 99.99     0.276 HD
ATOM      3  H2  ARG     1      50.410  39.133  49.260  1.00 99.99     0.276 HD
ATOM      4  H3  ARG     1      50.561  40.684  49.075  1.00 99.99     0.276 HD
ENDROOT
BRANCH   1   5
ATOM      5  CA  ARG     1      52.219  39.826  50.002  1.00  0.00     0.255 C 
BRANCH   5   6
ATOM      6  CB  ARG     1      52.952  38.470  49.990  1.00  0.00     0.042 C 
BRANCH   6   7
ATOM      7  CG  ARG     1      52.709  37.519  51.168  1.00  0.00     0.027 C 
BRANCH   7   8
ATOM      8  CD  ARG     1      52.323  38.351  52.399  1.00  0.00     0.116 C 
BRANCH   8   9
ATOM      9  NE  ARG     1      50.908  38.167  52.779  1.00  0.00    -0.212 N 
ATOM     10  HE  ARG     1      50.571  37.231  52.726  1.00 99.99     0.178 HD
ATOM     11  CZ  ARG     1      50.051  39.129  53.145  1.00  0.00     0.666 C 
ATOM     12  NH2 ARG     1      48.834  38.813  53.573  1.00  0.00    -0.235 N 
ATOM     13  NH1 ARG     1      50.388  40.413  53.163  1.00  0.00    -0.235 N 
ATOM     14 2HH2 ARG     1      48.544  37.861  53.623  1.00 99.99     0.174 HD
ATOM     15 1HH2 ARG     1      48.208  39.540  53.849  1.00 99.99     0.174 HD
ATOM     16 1HH1 ARG     1      49.727  41.106  53.446  1.00 99.99     0.174 HD
ATOM     17 2HH1 ARG     1      51.307  40.677  52.879  1.00 99.99     0.174 HD
ENDBRANCH   8   9
ENDBRANCH   7   8
ENDBRANCH   6   7
ENDBRANCH   5   6
BRANCH   5  18
ATOM     18  C   ARG     1      53.268  40.939  49.728  1.00  0.00     0.259 C 
ATOM     19  O   ARG     1      53.289  41.588  48.680  1.00  0.00    -0.271 OA
ATOM     20  N   VAL     2      54.186  41.099  50.678  1.00  0.00    -0.338 N 
ATOM     21  H   VAL     2      54.384  40.376  51.340  1.00 99.99     0.164 HD
BRANCH  20  22
ATOM     22  CA  VAL     2      55.142  42.226  50.763  1.00  0.00     0.159 C 
BRANCH  22  23
ATOM     23  CB  VAL     2      56.242  41.957  51.818  1.00  0.00     0.029 C 
ATOM     24  CG1 VAL     2      56.917  43.260  52.255  1.00  0.00     0.002 C 
ATOM     25  CG2 VAL     2      55.733  41.220  53.067  1.00  0.00     0.002 C 
ENDBRANCH  22  23
BRANCH  22  26
ATOM     26  C   VAL     2      55.751  42.465  49.371  1.00  0.00     0.251 C 
ATOM     27  O   VAL     2      55.595  43.559  48.829  1.00  0.00    -0.271 OA
ATOM     28  N   CYS     3      56.518  41.495  48.877  1.00  0.00    -0.337 N 
ATOM     29  H   CYS     3      56.666  40.630  49.357  1.00 99.99     0.164 HD
BRANCH  28  30
ATOM     30  CA  CYS     3      57.238  41.606  47.589  1.00  0.00     0.170 C 
BRANCH  30  31
ATOM     31  C   CYS     3      57.233  40.246  46.871  1.00  0.00     0.252 C 
ATOM     32  O   CYS     3      58.187  39.481  47.003  1.00  0.00    -0.271 OA
ATOM     33  N   PHE     4      56.127  39.942  46.194  1.00  0.00    -0.337 N 
ATOM     34  H   PHE     4      55.382  40.600  46.082  1.00 99.99     0.164 HD
BRANCH  33  35
ATOM     35  CA  PHE     4      55.940  38.675  45.446  1.00  0.00     0.164 C 
BRANCH  35  36
ATOM     36  C   PHE     4      56.212  37.449  46.346  1.00  0.00     0.251 C 
ATOM     37  O   PHE     4      55.388  37.123  47.196  1.00  0.00    -0.271 OA
ATOM     38  N   ALA     5      57.367  36.802  46.160  1.00  0.00    -0.338 N 
ATOM     39  H   ALA     5      57.987  37.059  45.423  1.00 99.99     0.164 HD
BRANCH  38  40
ATOM     40  CA  ALA     5      57.728  35.565  46.897  1.00  0.00     0.159 C 
ATOM     41  CB  ALA     5      58.274  34.535  45.903  1.00  0.00     0.034 C 
BRANCH  40  42
ATOM     42  C   ALA     5      58.697  35.693  48.094  1.00  0.00     0.251 C 
ATOM     43  N   ILE     6      59.155  36.911  48.380  1.00  0.00    -0.338 N 
ATOM     44  H   ILE     6      58.811  37.718  47.911  1.00 99.99     0.164 HD
ATOM     45  O   ALA     5      59.078  34.693  48.694  1.00  0.00    -0.271 OA
BRANCH  43  46
ATOM     46  CA  ILE     6      60.146  37.206  49.446  1.00  0.00     0.160 C 
BRANCH  46  47
ATOM     47  CB  ILE     6      61.516  37.529  48.812  1.00  0.00     0.029 C 
ATOM     48  CG2 ILE     6      62.398  36.272  48.869  1.00  0.00     0.002 C 
BRANCH  47  49
ATOM     49  CG1 ILE     6      61.393  38.116  47.392  1.00  0.00     0.002 C 
ATOM     50  CD  ILE     6      61.989  37.233  46.289  1.00  0.00     0.000 C 
ENDBRANCH  47  49
ENDBRANCH  46  47
BRANCH  46  51
ATOM     51  C   ILE     6      59.681  38.325  50.410  1.00  0.00     0.254 C 
ATOM     52  O   ILE     6      59.819  39.487  50.037  1.00  0.00    -0.270 OA
ATOM     53  N   PRO     7      59.210  38.033  51.635  1.00  0.00    -0.312 N 
ATOM     54  CD  PRO     7      59.100  36.687  52.230  1.00  0.00     0.105 C 
ATOM     55  CA  PRO     7      58.699  39.059  52.575  1.00  0.00     0.163 C 
ATOM     56  CG  PRO     7      58.875  36.949  53.720  1.00  0.00     0.027 C 
ATOM     57  CB  PRO     7      58.093  38.263  53.736  1.00  0.00     0.034 C 
BRANCH  55  58
ATOM     58  C   PRO     7      59.721  40.128  53.018  1.00  0.00     0.251 C 
ATOM     59  N   LEU     8      60.968  39.671  53.118  1.00  0.00    -0.338 N 
ATOM     60  H   LEU     8      61.139  38.696  52.974  1.00 99.99     0.164 HD
ATOM     61  O   PRO     7      59.408  41.301  53.211  1.00  0.00    -0.271 OA
BRANCH  59  62
ATOM     62  CA  LEU     8      62.166  40.432  53.543  1.00  0.00     0.160 C 
BRANCH  62  63
ATOM     63  CB  LEU     8      63.191  39.520  54.239  1.00  0.00     0.032 C 
BRANCH  63  64
ATOM     64  CG  LEU     8      63.996  40.139  55.389  1.00  0.00     0.002 C 
ATOM     65  CD2 LEU     8      63.373  41.444  55.894  1.00  0.00     0.000 C 
ATOM     66  CD1 LEU     8      65.413  40.422  54.888  1.00  0.00     0.000 C 
ENDBRANCH  63  64
ENDBRANCH  62  63
BRANCH  62  67
ATOM     67  C   LEU     8      62.871  41.054  52.319  1.00  0.00     0.254 C 
ATOM     68  O   LEU     8      62.761  42.269  52.138  1.00  0.00    -0.270 OA
ATOM     69  N   PRO     9      63.468  40.241  51.428  1.00  0.00    -0.312 N 
ATOM     70  CD  PRO     9      63.667  38.787  51.606  1.00  0.00     0.105 C 
ATOM     71  CA  PRO     9      64.188  40.694  50.212  1.00  0.00     0.163 C 
ATOM     72  CG  PRO     9      64.764  38.412  50.609  1.00  0.00     0.027 C 
ATOM     73  CB  PRO     9      64.544  39.404  49.473  1.00  0.00     0.034 C 
BRANCH  71  74
ATOM     74  C   PRO     9      63.488  41.673  49.246  1.00  0.00     0.251 C 
ATOM     75  N   ILE    10      63.913  42.936  49.231  1.00  0.00    -0.338 N 
ATOM     76  H   ILE    10      64.511  43.287  49.946  1.00 99.99     0.164 HD
ATOM     77  O   PRO     9      62.466  41.315  48.673  1.00  0.00    -0.271 OA
BRANCH  75  78
ATOM     78  CA  ILE    10      63.429  43.976  48.287  1.00  0.00     0.159 C 
BRANCH  78  79
ATOM     79  C   ILE    10      64.072  43.879  46.876  1.00  0.00     0.251 C 
ATOM     80  O   ILE    10      65.127  44.455  46.621  1.00  0.00    -0.271 OA
ATOM     81  N   CYS    11      63.422  43.140  45.981  1.00  0.00    -0.337 N 
ATOM     82  H   CYS    11      62.527  42.749  46.187  1.00 99.99     0.164 HD
BRANCH  81  83
ATOM     83  CA  CYS    11      63.929  42.791  44.632  1.00  0.00     0.170 C 
BRANCH  83  84
ATOM     84  C   CYS    11      62.819  42.329  43.668  1.00  0.00     0.252 C 
ATOM     85  O   CYS    11      63.091  41.740  42.626  1.00  0.00    -0.271 OA
ATOM     86  N   HIS    12      61.596  42.336  44.192  1.00  0.00    -0.336 N 
ATOM     87  H   HIS    12      61.451  42.620  45.136  1.00 99.99     0.164 HD
BRANCH  86  88
ATOM     88  CA  HIS    12      60.368  41.974  43.459  1.00  0.00     0.174 C 
BRANCH  88  89
ATOM     89  C   HIS    12      59.217  42.942  43.788  1.00  0.00     0.207 C 
ATOM     90  O   HIS    12      59.420  44.166  43.650  1.00 99.99    -0.646 OA
ATOM     91  OXT HIS    12      58.159  42.410  44.193  1.00 99.99    -0.646 OA
ENDBRANCH  88  89
BRANCH  88  92
ATOM     92  CB  HIS    12      59.962  40.549  43.858  1.00  0.00     0.078 C 
BRANCH  92  93
ATOM     93  CG  HIS    12      60.310  39.456  42.838  1.00  0.00     0.057 A 
ATOM     94  ND1 HIS    12      60.230  38.148  43.079  1.00  0.00    -0.338 N 
ATOM     95  CE1 HIS    12      60.221  37.506  41.916  1.00  0.00     0.175 A 
ATOM     96  HD1 HIS    12      60.206  37.717  43.980  1.00 99.99     0.167 HD
ATOM     97  NE2 HIS    12      60.343  38.410  40.951  1.00  0.00    -0.223 NA
ATOM     98  CD2 HIS    12      60.403  39.612  41.518  1.00  0.00     0.113 A 
ENDBRANCH  92  93
ENDBRANCH  88  92
ENDBRANCH  86  88
ENDBRANCH  83  84
BRANCH  83  99
ATOM     99  CB  CYS    11      64.901  41.619  44.751  1.00  0.00     0.085 C 
BRANCH  99 100
ATOM    100  SG  CYS    11      64.323  40.202  45.751  1.00  0.00    -0.165 SA
ATOM    101  HG  CYS    11      64.572  40.807  46.912  1.00 99.99     0.102 HD
ENDBRANCH  99 100
ENDBRANCH  83  99
ENDBRANCH  81  83
ENDBRANCH  78  79
BRANCH  78 102
ATOM    102  CB  ILE    10      63.613  45.357  48.963  1.00  0.00     0.029 C 
ATOM    103  CG2 ILE    10      62.334  45.874  49.645  1.00  0.00     0.002 C 
BRANCH 102 104
ATOM    104  CG1 ILE    10      64.778  45.294  49.971  1.00  0.00     0.002 C 
ATOM    105  CD  ILE    10      65.978  46.194  49.640  1.00  0.00     0.000 C 
ENDBRANCH 102 104
ENDBRANCH  78 102
ENDBRANCH  75  78
ENDBRANCH  71  74
ENDBRANCH  62  67
ENDBRANCH  59  62
ENDBRANCH  55  58
ENDBRANCH  46  51
ENDBRANCH  43  46
ENDBRANCH  40  42
ENDBRANCH  38  40
ENDBRANCH  35  36
BRANCH  35 106
ATOM    106  CB  PHE     4      56.846  38.644  44.206  1.00  0.00     0.056 C 
BRANCH 106 107
ATOM    107  CG  PHE     4      56.095  38.473  42.885  1.00  0.00    -0.044 A 
ATOM    108  CD2 PHE     4      56.726  38.754  41.678  1.00  0.00     0.008 A 
ATOM    109  CE2 PHE     4      56.040  38.591  40.481  1.00  0.00     0.001 A 
ATOM    110  CZ  PHE     4      54.726  38.139  40.488  1.00  0.00     0.000 A 
ATOM    111  CE1 PHE     4      54.096  37.851  41.691  1.00  0.00     0.001 A 
ATOM    112  CD1 PHE     4      54.779  38.025  42.890  1.00  0.00     0.008 A 
ENDBRANCH 106 107
ENDBRANCH  35 106
ENDBRANCH  33  35
ENDBRANCH  30  31
BRANCH  30 113
ATOM    113  CB  CYS     3      58.700  42.009  47.834  1.00  0.00     0.085 C 
BRANCH 113 114
ATOM    114  SG  CYS     3      59.123  43.755  47.479  1.00  0.00    -0.165 SA
ATOM    115  HG  CYS     3      58.076  44.282  48.108  1.00 99.99     0.102 HD
ENDBRANCH 113 114
ENDBRANCH  30 113
ENDBRANCH  28  30
ENDBRANCH  22  26
ENDBRANCH  20  22
ENDBRANCH   5  18
ENDBRANCH   1   5
TORSDOF 41
ENDMDL
MODEL 6
REMARK VINA RESULT:      -4.9      3.862     11.188
REMARK WARNING: 32 MAX_TORS EXCEEDED!!!
REMARK  41 active torsions:
REMARK  status: ('A' for Active; 'I' for Inactive)
REMARK    1  A    between atoms: N_1  and  CA_2 
REMARK    2  A    between atoms: CA_2  and  CB_5 
REMARK    3  A    between atoms: CA_2  and  C_3 
REMARK       I    between atoms: C_3  and  N_20 
REMARK    4  A    between atoms: CB_5  and  CG_6 
REMARK    5  A    between atoms: CG_6  and  CD_7 
REMARK    6  A    between atoms: CD_7  and  NE_8 
REMARK       I    between atoms: NE_8  and  CZ_9 
REMARK       I    between atoms: CZ_9  and  NH1_10 
REMARK    7  A    between atoms: N_20  and  CA_21 
REMARK    8  A    between atoms: CA_21  and  CB_24 
REMARK    9  A    between atoms: CA_21  and  C_22 
REMARK       I    between atoms: C_22  and  N_28 
REMARK   10  A    between atoms: N_28  and  CA_29 
REMARK   11  A    between atoms: CA_29  and  C_30 
REMARK   12  A    between atoms: CA_29  and  CB_32 
REMARK       I    between atoms: C_30  and  N_36 
REMARK   13  A    between atoms: CB_32  and  SG_33 
REMARK   14  A    between atoms: N_36  and  CA_37 
REMARK   15  A    between atoms: CA_37  and  C_38 
REMARK   16  A    between atoms: CA_37  and  CB_40 
REMARK       I    between atoms: C_38  and  N_48 
REMARK   17  A    between atoms: CB_40  and  CG_41 
REMARK   18  A    between atoms: N_48  and  CA_49 
REMARK   19  A    between atoms: CA_49  and  C_50 
REMARK       I    between atoms: C_50  and  N_54 
REMARK   20  A    between atoms: N_54  and  CA_55 
REMARK   21  A    between atoms: CA_55  and  CB_58 
REMARK   22  A    between atoms: CA_55  and  C_56 
REMARK       I    between atoms: C_56  and  N_63 
REMARK   23  A    between atoms: CB_58  and  CG1_59 
REMARK   24  A    between atoms: CA_64  and  C_65 
REMARK       I    between atoms: C_65  and  N_70 
REMARK   25  A    between atoms: N_70  and  CA_71 
REMARK   26  A    between atoms: CA_71  and  CB_74 
REMARK   27  A    between atoms: CA_71  and  C_72 
REMARK       I    between atoms: C_72  and  N_79 
REMARK   28  A    between atoms: CB_74  and  CG_75 
REMARK   29  A    between atoms: CA_80  and  C_81 
REMARK       I    between atoms: C_81  and  N_86 
REMARK   30  A    between atoms: N_86  and  CA_87 
REMARK   31  A    between atoms: CA_87  and  C_88 
REMARK   32  A    between atoms: CA_87  and  CB_90 
REMARK       I    between atoms: C_88  and  N_95 
REMARK   33  A    between atoms: CB_90  and  CG1_91 
REMARK   34  A    between atoms: N_95  and  CA_96 
REMARK   35  A    between atoms: CA_96  and  C_97 
REMARK   36  A    between atoms: CA_96  and  CB_99 
REMARK       I    between atoms: C_97  and  N_103 
REMARK   37  A    between atoms: CB_99  and  SG_100 
REMARK   38  A    between atoms: N_103  and  CA_104 
REMARK   39  A    between atoms: CA_104  and  C_105 
REMARK   40  A    between atoms: CA_104  and  CB_107 
REMARK   41  A    between atoms: CB_107  and  CG_108 
ROOT
ATOM      1  N   ARG     1      58.915  44.722  47.197  1.00  0.00    -0.058 N 
ATOM      2  H1  ARG     1      58.931  45.595  46.712  1.00 99.99     0.276 HD
ATOM      3  H2  ARG     1      58.989  44.908  48.165  1.00 99.99     0.276 HD
ATOM      4  H3  ARG     1      59.735  44.206  46.977  1.00 99.99     0.276 HD
ENDROOT
BRANCH   1   5
ATOM      5  CA  ARG     1      57.665  43.983  46.864  1.00  0.00     0.255 C 
BRANCH   5   6
ATOM      6  CB  ARG     1      57.970  42.549  46.385  1.00  0.00     0.042 C 
BRANCH   6   7
ATOM      7  CG  ARG     1      58.218  42.336  44.887  1.00  0.00     0.027 C 
BRANCH   7   8
ATOM      8  CD  ARG     1      58.844  43.613  44.307  1.00  0.00     0.116 C 
BRANCH   8   9
ATOM      9  NE  ARG     1      60.139  43.352  43.648  1.00  0.00    -0.212 N 
ATOM     10  HE  ARG     1      60.110  43.316  42.652  1.00 99.99     0.178 HD
ATOM     11  CZ  ARG     1      61.312  43.130  44.256  1.00  0.00     0.666 C 
ATOM     12  NH2 ARG     1      62.426  43.022  43.542  1.00  0.00    -0.235 N 
ATOM     13  NH1 ARG     1      61.429  43.076  45.578  1.00  0.00    -0.235 N 
ATOM     14 2HH2 ARG     1      62.403  43.101  42.549  1.00 99.99     0.174 HD
ATOM     15 1HH2 ARG     1      63.294  42.865  44.009  1.00 99.99     0.174 HD
ATOM     16 1HH1 ARG     1      62.318  42.915  46.002  1.00 99.99     0.174 HD
ATOM     17 2HH1 ARG     1      60.613  43.188  46.141  1.00 99.99     0.174 HD
ENDBRANCH   8   9
ENDBRANCH   7   8
ENDBRANCH   6   7
ENDBRANCH   5   6
BRANCH   5  18
ATOM     18  C   ARG     1      56.661  43.889  48.046  1.00  0.00     0.259 C 
ATOM     19  O   ARG     1      55.789  44.737  48.245  1.00  0.00    -0.271 OA
ATOM     20  N   VAL     2      56.850  42.860  48.870  1.00  0.00    -0.338 N 
ATOM     21  H   VAL     2      57.728  42.385  48.919  1.00 99.99     0.164 HD
BRANCH  20  22
ATOM     22  CA  VAL     2      55.906  42.422  49.922  1.00  0.00     0.159 C 
BRANCH  22  23
ATOM     23  CB  VAL     2      54.786  41.526  49.342  1.00  0.00     0.029 C 
ATOM     24  CG1 VAL     2      55.329  40.607  48.243  1.00  0.00     0.002 C 
ATOM     25  CG2 VAL     2      54.074  40.666  50.398  1.00  0.00     0.002 C 
ENDBRANCH  22  23
BRANCH  22  26
ATOM     26  C   VAL     2      56.694  41.689  51.021  1.00  0.00     0.251 C 
ATOM     27  O   VAL     2      57.484  40.800  50.699  1.00  0.00    -0.271 OA
ATOM     28  N   CYS     3      56.556  42.145  52.265  1.00  0.00    -0.337 N 
ATOM     29  H   CYS     3      55.940  42.898  52.495  1.00 99.99     0.164 HD
BRANCH  28  30
ATOM     30  CA  CYS     3      57.306  41.598  53.417  1.00  0.00     0.170 C 
BRANCH  30  31
ATOM     31  C   CYS     3      58.782  42.024  53.326  1.00  0.00     0.252 C 
ATOM     32  O   CYS     3      59.068  43.204  53.132  1.00  0.00    -0.271 OA
ATOM     33  N   PHE     4      59.683  41.069  53.546  1.00  0.00    -0.337 N 
ATOM     34  H   PHE     4      59.417  40.113  53.670  1.00 99.99     0.164 HD
BRANCH  33  35
ATOM     35  CA  PHE     4      61.149  41.294  53.506  1.00  0.00     0.164 C 
BRANCH  35  36
ATOM     36  C   PHE     4      61.674  41.296  52.053  1.00  0.00     0.251 C 
ATOM     37  O   PHE     4      62.880  41.391  51.842  1.00  0.00    -0.271 OA
ATOM     38  N   ALA     5      60.765  41.209  51.077  1.00  0.00    -0.338 N 
ATOM     39  H   ALA     5      59.800  41.076  51.284  1.00 99.99     0.164 HD
BRANCH  38  40
ATOM     40  CA  ALA     5      61.128  41.123  49.640  1.00  0.00     0.159 C 
ATOM     41  CB  ALA     5      59.922  40.600  48.853  1.00  0.00     0.034 C 
BRANCH  40  42
ATOM     42  C   ALA     5      61.681  42.393  48.956  1.00  0.00     0.251 C 
ATOM     43  N   ILE     6      63.006  42.512  48.873  1.00  0.00    -0.338 N 
ATOM     44  H   ILE     6      63.612  41.771  49.145  1.00 99.99     0.164 HD
ATOM     45  O   ALA     5      60.920  43.280  48.581  1.00  0.00    -0.271 OA
BRANCH  43  46
ATOM     46  CA  ILE     6      63.709  43.695  48.314  1.00  0.00     0.160 C 
BRANCH  46  47
ATOM     47  CB  ILE     6      64.450  44.444  49.442  1.00  0.00     0.029 C 
ATOM     48  CG2 ILE     6      65.343  45.527  48.817  1.00  0.00     0.002 C 
BRANCH  47  49
ATOM     49  CG1 ILE     6      63.494  44.997  50.518  1.00  0.00     0.002 C 
ATOM     50  CD  ILE     6      62.597  46.144  50.037  1.00  0.00     0.000 C 
ENDBRANCH  47  49
ENDBRANCH  46  47
BRANCH  46  51
ATOM     51  C   ILE     6      64.656  43.337  47.143  1.00  0.00     0.254 C 
ATOM     52  O   ILE     6      64.350  43.741  46.024  1.00  0.00    -0.270 OA
ATOM     53  N   PRO     7      65.733  42.556  47.336  1.00  0.00    -0.312 N 
ATOM     54  CD  PRO     7      66.138  41.928  48.610  1.00  0.00     0.105 C 
ATOM     55  CA  PRO     7      66.703  42.229  46.265  1.00  0.00     0.163 C 
ATOM     56  CG  PRO     7      67.171  40.877  48.200  1.00  0.00     0.027 C 
ATOM     57  CB  PRO     7      67.847  41.499  46.978  1.00  0.00     0.034 C 
BRANCH  55  58
ATOM     58  C   PRO     7      66.130  41.459  45.056  1.00  0.00     0.251 C 
ATOM     59  N   LEU     8      65.024  40.769  45.332  1.00  0.00    -0.338 N 
ATOM     60  H   LEU     8      64.695  40.741  46.277  1.00 99.99     0.164 HD
ATOM     61  O   PRO     7      66.630  41.524  43.934  1.00  0.00    -0.271 OA
BRANCH  59  62
ATOM     62  CA  LEU     8      64.253  39.911  44.403  1.00  0.00     0.160 C 
BRANCH  62  63
ATOM     63  CB  LEU     8      64.866  38.503  44.302  1.00  0.00     0.032 C 
BRANCH  63  64
ATOM     64  CG  LEU     8      65.703  38.204  43.052  1.00  0.00     0.002 C 
ATOM     65  CD2 LEU     8      65.104  37.071  42.212  1.00  0.00     0.000 C 
ATOM     66  CD1 LEU     8      67.111  37.807  43.498  1.00  0.00     0.000 C 
ENDBRANCH  63  64
ENDBRANCH  62  63
BRANCH  62  67
ATOM     67  C   LEU     8      62.805  39.739  44.908  1.00  0.00     0.254 C 
ATOM     68  O   LEU     8      62.618  39.654  46.124  1.00  0.00    -0.270 OA
ATOM     69  N   PRO     9      61.818  39.559  44.011  1.00  0.00    -0.312 N 
ATOM     70  CD  PRO     9      61.970  39.688  42.546  1.00  0.00     0.105 C 
ATOM     71  CA  PRO     9      60.383  39.387  44.346  1.00  0.00     0.163 C 
ATOM     72  CG  PRO     9      60.548  39.867  42.014  1.00  0.00     0.027 C 
ATOM     73  CB  PRO     9      59.710  39.073  43.010  1.00  0.00     0.034 C 
BRANCH  71  74
ATOM     74  C   PRO     9      59.979  38.330  45.396  1.00  0.00     0.251 C 
ATOM     75  N   ILE    10      60.868  37.382  45.691  1.00  0.00    -0.338 N 
ATOM     76  H   ILE    10      61.673  37.234  45.122  1.00 99.99     0.164 HD
ATOM     77  O   PRO     9      58.816  38.286  45.779  1.00  0.00    -0.271 OA
BRANCH  75  78
ATOM     78  CA  ILE    10      60.687  36.361  46.755  1.00  0.00     0.159 C 
BRANCH  78  79
ATOM     79  C   ILE    10      60.838  36.929  48.192  1.00  0.00     0.251 C 
ATOM     80  O   ILE    10      59.852  37.156  48.888  1.00  0.00    -0.271 OA
ATOM     81  N   CYS    11      62.081  37.143  48.615  1.00  0.00    -0.337 N 
ATOM     82  H   CYS    11      62.861  37.028  48.002  1.00 99.99     0.164 HD
BRANCH  81  83
ATOM     83  CA  CYS    11      62.458  37.535  49.994  1.00  0.00     0.170 C 
BRANCH  83  84
ATOM     84  C   CYS    11      63.662  38.496  50.043  1.00  0.00     0.252 C 
ATOM     85  O   CYS    11      63.745  39.445  49.270  1.00  0.00    -0.271 OA
ATOM     86  N   HIS    12      64.398  38.401  51.147  1.00  0.00    -0.336 N 
ATOM     87  H   HIS    12      64.156  37.751  51.863  1.00 99.99     0.164 HD
BRANCH  86  88
ATOM     88  CA  HIS    12      65.620  39.185  51.410  1.00  0.00     0.174 C 
BRANCH  88  89
ATOM     89  C   HIS    12      66.869  38.472  50.860  1.00  0.00     0.207 C 
ATOM     90  O   HIS    12      66.705  37.431  50.189  1.00 99.99    -0.646 OA
ATOM     91  OXT HIS    12      67.967  38.995  51.154  1.00 99.99    -0.646 OA
ENDBRANCH  88  89
BRANCH  88  92
ATOM     92  CB  HIS    12      65.767  39.368  52.926  1.00  0.00     0.078 C 
BRANCH  92  93
ATOM     93  CG  HIS    12      65.489  38.116  53.769  1.00  0.00     0.057 A 
ATOM     94  ND1 HIS    12      66.206  36.995  53.711  1.00  0.00    -0.338 N 
ATOM     95  CE1 HIS    12      65.958  36.280  54.803  1.00  0.00     0.175 A 
ATOM     96  HD1 HIS    12      66.810  36.721  52.963  1.00 99.99     0.167 HD
ATOM     97  NE2 HIS    12      65.051  36.932  55.520  1.00  0.00    -0.223 NA
ATOM     98  CD2 HIS    12      64.757  38.062  54.882  1.00  0.00     0.113 A 
ENDBRANCH  92  93
ENDBRANCH  88  92
ENDBRANCH  86  88
ENDBRANCH  83  84
BRANCH  83  99
ATOM     99  CB  CYS    11      62.880  36.289  50.770  1.00  0.00     0.085 C 
BRANCH  99 100
ATOM    100  SG  CYS    11      61.570  35.481  51.757  1.00  0.00    -0.165 SA
ATOM    101  HG  CYS    11      62.328  35.389  52.850  1.00 99.99     0.102 HD
ENDBRANCH  99 100
ENDBRANCH  83  99
ENDBRANCH  81  83
ENDBRANCH  78  79
BRANCH  78 102
ATOM    102  CB  ILE    10      61.640  35.178  46.448  1.00  0.00     0.029 C 
ATOM    103  CG2 ILE    10      60.908  33.920  45.952  1.00  0.00     0.002 C 
BRANCH 102 104
ATOM    104  CG1 ILE    10      62.709  35.621  45.428  1.00  0.00     0.002 C 
ATOM    105  CD  ILE    10      63.232  34.511  44.505  1.00  0.00     0.000 C 
ENDBRANCH 102 104
ENDBRANCH  78 102
ENDBRANCH  75  78
ENDBRANCH  71  74
ENDBRANCH  62  67
ENDBRANCH  59  62
ENDBRANCH  55  58
ENDBRANCH  46  51
ENDBRANCH  43  46
ENDBRANCH  40  42
ENDBRANCH  38  40
ENDBRANCH  35  36
BRANCH  35 106
ATOM    106  CB  PHE     4      61.879  40.229  54.340  1.00  0.00     0.056 C 
BRANCH 106 107
ATOM    107  CG  PHE     4      62.442  40.747  55.664  1.00  0.00    -0.044 A 
ATOM    108  CD2 PHE     4      61.934  40.282  56.872  1.00  0.00     0.008 A 
ATOM    109  CE2 PHE     4      62.455  40.752  58.070  1.00  0.00     0.001 A 
ATOM    110  CZ  PHE     4      63.488  41.680  58.065  1.00  0.00     0.000 A 
ATOM    111  CE1 PHE     4      64.002  42.140  56.860  1.00  0.00     0.001 A 
ATOM    112  CD1 PHE     4      63.474  41.678  55.660  1.00  0.00     0.008 A 
ENDBRANCH 106 107
ENDBRANCH  35 106
ENDBRANCH  33  35
ENDBRANCH  30  31
BRANCH  30 113
ATOM    113  CB  CYS     3      57.253  40.063  53.402  1.00  0.00     0.085 C 
BRANCH 113 114
ATOM    114  SG  CYS     3      55.642  39.309  53.841  1.00  0.00    -0.165 SA
ATOM    115  HG  CYS     3      54.903  40.107  53.073  1.00 99.99     0.102 HD
ENDBRANCH 113 114
ENDBRANCH  30 113
ENDBRANCH  28  30
ENDBRANCH  22  26
ENDBRANCH  20  22
ENDBRANCH   5  18
ENDBRANCH   1   5
TORSDOF 41
ENDMDL
MODEL 7
REMARK VINA RESULT:      -4.9      2.774     12.624
REMARK WARNING: 32 MAX_TORS EXCEEDED!!!
REMARK  41 active torsions:
REMARK  status: ('A' for Active; 'I' for Inactive)
REMARK    1  A    between atoms: N_1  and  CA_2 
REMARK    2  A    between atoms: CA_2  and  CB_5 
REMARK    3  A    between atoms: CA_2  and  C_3 
REMARK       I    between atoms: C_3  and  N_20 
REMARK    4  A    between atoms: CB_5  and  CG_6 
REMARK    5  A    between atoms: CG_6  and  CD_7 
REMARK    6  A    between atoms: CD_7  and  NE_8 
REMARK       I    between atoms: NE_8  and  CZ_9 
REMARK       I    between atoms: CZ_9  and  NH1_10 
REMARK    7  A    between atoms: N_20  and  CA_21 
REMARK    8  A    between atoms: CA_21  and  CB_24 
REMARK    9  A    between atoms: CA_21  and  C_22 
REMARK       I    between atoms: C_22  and  N_28 
REMARK   10  A    between atoms: N_28  and  CA_29 
REMARK   11  A    between atoms: CA_29  and  C_30 
REMARK   12  A    between atoms: CA_29  and  CB_32 
REMARK       I    between atoms: C_30  and  N_36 
REMARK   13  A    between atoms: CB_32  and  SG_33 
REMARK   14  A    between atoms: N_36  and  CA_37 
REMARK   15  A    between atoms: CA_37  and  C_38 
REMARK   16  A    between atoms: CA_37  and  CB_40 
REMARK       I    between atoms: C_38  and  N_48 
REMARK   17  A    between atoms: CB_40  and  CG_41 
REMARK   18  A    between atoms: N_48  and  CA_49 
REMARK   19  A    between atoms: CA_49  and  C_50 
REMARK       I    between atoms: C_50  and  N_54 
REMARK   20  A    between atoms: N_54  and  CA_55 
REMARK   21  A    between atoms: CA_55  and  CB_58 
REMARK   22  A    between atoms: CA_55  and  C_56 
REMARK       I    between atoms: C_56  and  N_63 
REMARK   23  A    between atoms: CB_58  and  CG1_59 
REMARK   24  A    between atoms: CA_64  and  C_65 
REMARK       I    between atoms: C_65  and  N_70 
REMARK   25  A    between atoms: N_70  and  CA_71 
REMARK   26  A    between atoms: CA_71  and  CB_74 
REMARK   27  A    between atoms: CA_71  and  C_72 
REMARK       I    between atoms: C_72  and  N_79 
REMARK   28  A    between atoms: CB_74  and  CG_75 
REMARK   29  A    between atoms: CA_80  and  C_81 
REMARK       I    between atoms: C_81  and  N_86 
REMARK   30  A    between atoms: N_86  and  CA_87 
REMARK   31  A    between atoms: CA_87  and  C_88 
REMARK   32  A    between atoms: CA_87  and  CB_90 
REMARK       I    between atoms: C_88  and  N_95 
REMARK   33  A    between atoms: CB_90  and  CG1_91 
REMARK   34  A    between atoms: N_95  and  CA_96 
REMARK   35  A    between atoms: CA_96  and  C_97 
REMARK   36  A    between atoms: CA_96  and  CB_99 
REMARK       I    between atoms: C_97  and  N_103 
REMARK   37  A    between atoms: CB_99  and  SG_100 
REMARK   38  A    between atoms: N_103  and  CA_104 
REMARK   39  A    between atoms: CA_104  and  C_105 
REMARK   40  A    between atoms: CA_104  and  CB_107 
REMARK   41  A    between atoms: CB_107  and  CG_108 
ROOT
ATOM      1  N   ARG     1      57.322  39.887  47.325  1.00  0.00    -0.058 N 
ATOM      2  H1  ARG     1      57.216  39.050  47.861  1.00 99.99     0.276 HD
ATOM      3  H2  ARG     1      56.823  39.775  46.479  1.00 99.99     0.276 HD
ATOM      4  H3  ARG     1      58.271  39.985  47.048  1.00 99.99     0.276 HD
ENDROOT
BRANCH   1   5
ATOM      5  CA  ARG     1      56.832  41.054  48.112  1.00  0.00     0.255 C 
BRANCH   5   6
ATOM      6  CB  ARG     1      57.081  42.380  47.366  1.00  0.00     0.042 C 
BRANCH   6   7
ATOM      7  CG  ARG     1      58.022  43.398  48.020  1.00  0.00     0.027 C 
BRANCH   7   8
ATOM      8  CD  ARG     1      59.198  43.663  47.068  1.00  0.00     0.116 C 
BRANCH   8   9
ATOM      9  NE  ARG     1      60.064  42.478  46.904  1.00  0.00    -0.212 N 
ATOM     10  HE  ARG     1      59.878  41.725  47.530  1.00 99.99     0.178 HD
ATOM     11  CZ  ARG     1      61.075  42.346  46.035  1.00  0.00     0.666 C 
ATOM     12  NH2 ARG     1      61.702  41.182  45.911  1.00  0.00    -0.235 N 
ATOM     13  NH1 ARG     1      61.448  43.327  45.222  1.00  0.00    -0.235 N 
ATOM     14 2HH2 ARG     1      61.433  40.397  46.464  1.00 99.99     0.174 HD
ATOM     15 1HH2 ARG     1      62.449  41.095  45.254  1.00 99.99     0.174 HD
ATOM     16 1HH1 ARG     1      62.202  43.195  44.581  1.00 99.99     0.174 HD
ATOM     17 2HH1 ARG     1      60.972  44.202  45.269  1.00 99.99     0.174 HD
ENDBRANCH   8   9
ENDBRANCH   7   8
ENDBRANCH   6   7
ENDBRANCH   5   6
BRANCH   5  18
ATOM     18  C   ARG     1      55.320  40.980  48.463  1.00  0.00     0.259 C 
ATOM     19  O   ARG     1      54.662  41.974  48.776  1.00  0.00    -0.271 OA
ATOM     20  N   VAL     2      54.798  39.755  48.466  1.00  0.00    -0.338 N 
ATOM     21  H   VAL     2      55.374  38.943  48.555  1.00 99.99     0.164 HD
BRANCH  20  22
ATOM     22  CA  VAL     2      53.354  39.441  48.541  1.00  0.00     0.159 C 
BRANCH  22  23
ATOM     23  CB  VAL     2      53.060  38.005  48.045  1.00  0.00     0.029 C 
ATOM     24  CG1 VAL     2      51.553  37.745  47.970  1.00  0.00     0.002 C 
ATOM     25  CG2 VAL     2      53.686  37.683  46.679  1.00  0.00     0.002 C 
ENDBRANCH  22  23
BRANCH  22  26
ATOM     26  C   VAL     2      52.879  39.638  49.991  1.00  0.00     0.251 C 
ATOM     27  O   VAL     2      52.000  40.467  50.226  1.00  0.00    -0.271 OA
ATOM     28  N   CYS     3      53.378  38.805  50.904  1.00  0.00    -0.337 N 
ATOM     29  H   CYS     3      54.060  38.110  50.680  1.00 99.99     0.164 HD
BRANCH  28  30
ATOM     30  CA  CYS     3      52.962  38.815  52.324  1.00  0.00     0.170 C 
BRANCH  30  31
ATOM     31  C   CYS     3      54.168  39.151  53.217  1.00  0.00     0.252 C 
ATOM     32  O   CYS     3      53.997  39.753  54.276  1.00  0.00    -0.271 OA
ATOM     33  N   PHE     4      55.348  38.686  52.811  1.00  0.00    -0.337 N 
ATOM     34  H   PHE     4      55.456  38.226  51.929  1.00 99.99     0.164 HD
BRANCH  33  35
ATOM     35  CA  PHE     4      56.618  38.905  53.545  1.00  0.00     0.164 C 
BRANCH  35  36
ATOM     36  C   PHE     4      57.183  40.317  53.275  1.00  0.00     0.251 C 
ATOM     37  O   PHE     4      57.695  40.953  54.191  1.00  0.00    -0.271 OA
ATOM     38  N   ALA     5      57.067  40.790  52.031  1.00  0.00    -0.338 N 
ATOM     39  H   ALA     5      56.697  40.225  51.298  1.00 99.99     0.164 HD
BRANCH  38  40
ATOM     40  CA  ALA     5      57.631  42.096  51.607  1.00  0.00     0.159 C 
ATOM     41  CB  ALA     5      56.777  43.223  52.196  1.00  0.00     0.034 C 
BRANCH  40  42
ATOM     42  C   ALA     5      59.123  42.370  51.901  1.00  0.00     0.251 C 
ATOM     43  N   ILE     6      60.017  41.827  51.075  1.00  0.00    -0.338 N 
ATOM     44  H   ILE     6      59.736  41.354  50.246  1.00 99.99     0.164 HD
ATOM     45  O   ALA     5      59.455  42.996  52.903  1.00  0.00    -0.271 OA
BRANCH  43  46
ATOM     46  CA  ILE     6      61.489  41.926  51.248  1.00  0.00     0.160 C 
BRANCH  46  47
ATOM     47  CB  ILE     6      62.058  40.557  51.677  1.00  0.00     0.029 C 
ATOM     48  CG2 ILE     6      63.124  40.780  52.761  1.00  0.00     0.002 C 
BRANCH  47  49
ATOM     49  CG1 ILE     6      60.960  39.563  52.106  1.00  0.00     0.002 C 
ATOM     50  CD  ILE     6      60.900  39.301  53.616  1.00  0.00     0.000 C 
ENDBRANCH  47  49
ENDBRANCH  46  47
BRANCH  46  51
ATOM     51  C   ILE     6      62.208  42.480  49.993  1.00  0.00     0.254 C 
ATOM     52  O   ILE     6      62.376  41.710  49.051  1.00  0.00    -0.270 OA
ATOM     53  N   PRO     7      62.692  43.734  49.969  1.00  0.00    -0.312 N 
ATOM     54  CD  PRO     7      62.645  44.709  51.076  1.00  0.00     0.105 C 
ATOM     55  CA  PRO     7      63.338  44.332  48.777  1.00  0.00     0.163 C 
ATOM     56  CG  PRO     7      63.638  45.797  50.663  1.00  0.00     0.027 C 
ATOM     57  CB  PRO     7      63.540  45.809  49.137  1.00  0.00     0.034 C 
BRANCH  55  58
ATOM     58  C   PRO     7      64.622  43.629  48.288  1.00  0.00     0.251 C 
ATOM     59  N   LEU     8      64.431  42.833  47.236  1.00  0.00    -0.338 N 
ATOM     60  H   LEU     8      63.500  42.695  46.896  1.00 99.99     0.164 HD
ATOM     61  O   PRO     7      65.722  43.832  48.797  1.00  0.00    -0.271 OA
BRANCH  59  62
ATOM     62  CA  LEU     8      65.448  42.001  46.551  1.00  0.00     0.160 C 
BRANCH  62  63
ATOM     63  CB  LEU     8      65.264  40.509  46.878  1.00  0.00     0.032 C 
BRANCH  63  64
ATOM     64  CG  LEU     8      66.077  39.955  48.054  1.00  0.00     0.002 C 
ATOM     65  CD2 LEU     8      65.288  39.981  49.367  1.00  0.00     0.000 C 
ATOM     66  CD1 LEU     8      67.338  40.806  48.211  1.00  0.00     0.000 C 
ENDBRANCH  63  64
ENDBRANCH  62  63
BRANCH  62  67
ATOM     67  C   LEU     8      65.319  42.148  45.020  1.00  0.00     0.254 C 
ATOM     68  O   LEU     8      64.253  42.565  44.562  1.00  0.00    -0.270 OA
ATOM     69  N   PRO     9      66.317  41.700  44.236  1.00  0.00    -0.312 N 
ATOM     70  CD  PRO     9      67.631  41.229  44.722  1.00  0.00     0.105 C 
ATOM     71  CA  PRO     9      66.336  41.780  42.754  1.00  0.00     0.163 C 
ATOM     72  CG  PRO     9      68.549  41.285  43.501  1.00  0.00     0.027 C 
ATOM     73  CB  PRO     9      67.593  41.013  42.344  1.00  0.00     0.034 C 
BRANCH  71  74
ATOM     74  C   PRO     9      65.122  41.256  41.959  1.00  0.00     0.251 C 
ATOM     75  N   ILE    10      64.393  40.288  42.512  1.00  0.00    -0.338 N 
ATOM     76  H   ILE    10      64.724  39.780  43.303  1.00 99.99     0.164 HD
ATOM     77  O   PRO     9      64.978  41.607  40.794  1.00  0.00    -0.271 OA
BRANCH  75  78
ATOM     78  CA  ILE    10      63.132  39.751  41.938  1.00  0.00     0.159 C 
BRANCH  78  79
ATOM     79  C   ILE    10      61.992  40.802  41.855  1.00  0.00     0.251 C 
ATOM     80  O   ILE    10      61.671  41.465  42.838  1.00  0.00    -0.271 OA
ATOM     81  N   CYS    11      61.402  40.940  40.670  1.00  0.00    -0.337 N 
ATOM     82  H   CYS    11      61.625  40.334  39.909  1.00 99.99     0.164 HD
BRANCH  81  83
ATOM     83  CA  CYS    11      60.402  41.981  40.330  1.00  0.00     0.170 C 
BRANCH  83  84
ATOM     84  C   CYS    11      58.974  41.622  40.785  1.00  0.00     0.252 C 
ATOM     85  O   CYS    11      58.005  41.854  40.069  1.00  0.00    -0.271 OA
ATOM     86  N   HIS    12      58.919  40.791  41.822  1.00  0.00    -0.336 N 
ATOM     87  H   HIS    12      59.755  40.447  42.242  1.00 99.99     0.164 HD
BRANCH  86  88
ATOM     88  CA  HIS    12      57.672  40.331  42.463  1.00  0.00     0.174 C 
BRANCH  88  89
ATOM     89  C   HIS    12      57.699  40.584  43.981  1.00  0.00     0.207 C 
ATOM     90  O   HIS    12      58.801  40.531  44.567  1.00 99.99    -0.646 OA
ATOM     91  OXT HIS    12      56.589  40.807  44.515  1.00 99.99    -0.646 OA
ENDBRANCH  88  89
BRANCH  88  92
ATOM     92  CB  HIS    12      57.514  38.827  42.202  1.00  0.00     0.078 C 
BRANCH  92  93
ATOM     93  CG  HIS    12      56.108  38.262  42.448  1.00  0.00     0.057 A 
ATOM     94  ND1 HIS    12      55.057  38.491  41.663  1.00  0.00    -0.338 N 
ATOM     95  CE1 HIS    12      54.129  37.576  41.924  1.00  0.00     0.175 A 
ATOM     96  HD1 HIS    12      54.965  39.239  41.006  1.00 99.99     0.167 HD
ATOM     97  NE2 HIS    12      54.583  36.804  42.904  1.00  0.00    -0.223 NA
ATOM     98  CD2 HIS    12      55.801  37.228  43.232  1.00  0.00     0.113 A 
ENDBRANCH  92  93
ENDBRANCH  88  92
ENDBRANCH  86  88
ENDBRANCH  83  84
BRANCH  83  99
ATOM     99  CB  CYS    11      60.336  42.134  38.812  1.00  0.00     0.085 C 
BRANCH  99 100
ATOM    100  SG  CYS    11      60.735  40.637  37.841  1.00  0.00    -0.165 SA
ATOM    101  HG  CYS    11      60.285  39.802  38.778  1.00 99.99     0.102 HD
ENDBRANCH  99 100
ENDBRANCH  83  99
ENDBRANCH  81  83
ENDBRANCH  78  79
BRANCH  78 102
ATOM    102  CB  ILE    10      62.750  38.477  42.732  1.00  0.00     0.029 C 
ATOM    103  CG2 ILE    10      61.277  38.072  42.558  1.00  0.00     0.002 C 
BRANCH 102 104
ATOM    104  CG1 ILE    10      63.683  37.315  42.333  1.00  0.00     0.002 C 
ATOM    105  CD  ILE    10      63.909  37.147  40.824  1.00  0.00     0.000 C 
ENDBRANCH 102 104
ENDBRANCH  78 102
ENDBRANCH  75  78
ENDBRANCH  71  74
ENDBRANCH  62  67
ENDBRANCH  59  62
ENDBRANCH  55  58
ENDBRANCH  46  51
ENDBRANCH  43  46
ENDBRANCH  40  42
ENDBRANCH  38  40
ENDBRANCH  35  36
BRANCH  35 106
ATOM    106  CB  PHE     4      57.649  37.830  53.167  1.00  0.00     0.056 C 
BRANCH 106 107
ATOM    107  CG  PHE     4      57.320  37.071  51.881  1.00  0.00    -0.044 A 
ATOM    108  CD2 PHE     4      56.781  35.790  51.942  1.00  0.00     0.008 A 
ATOM    109  CE2 PHE     4      56.478  35.109  50.770  1.00  0.00     0.001 A 
ATOM    110  CZ  PHE     4      56.704  35.708  49.537  1.00  0.00     0.000 A 
ATOM    111  CE1 PHE     4      57.235  36.989  49.474  1.00  0.00     0.001 A 
ATOM    112  CD1 PHE     4      57.549  37.668  50.646  1.00  0.00     0.008 A 
ENDBRANCH 106 107
ENDBRANCH  35 106
ENDBRANCH  33  35
ENDBRANCH  30  31
BRANCH  30 113
ATOM    113  CB  CYS     3      52.441  37.428  52.731  1.00  0.00     0.085 C 
BRANCH 113 114
ATOM    114  SG  CYS     3      52.779  36.064  51.556  1.00  0.00    -0.165 SA
ATOM    115  HG  CYS     3      53.003  35.136  52.483  1.00 99.99     0.102 HD
ENDBRANCH 113 114
ENDBRANCH  30 113
ENDBRANCH  28  30
ENDBRANCH  22  26
ENDBRANCH  20  22
ENDBRANCH   5  18
ENDBRANCH   1   5
TORSDOF 41
ENDMDL
MODEL 8
REMARK VINA RESULT:      -4.8      3.418     10.357
REMARK WARNING: 32 MAX_TORS EXCEEDED!!!
REMARK  41 active torsions:
REMARK  status: ('A' for Active; 'I' for Inactive)
REMARK    1  A    between atoms: N_1  and  CA_2 
REMARK    2  A    between atoms: CA_2  and  CB_5 
REMARK    3  A    between atoms: CA_2  and  C_3 
REMARK       I    between atoms: C_3  and  N_20 
REMARK    4  A    between atoms: CB_5  and  CG_6 
REMARK    5  A    between atoms: CG_6  and  CD_7 
REMARK    6  A    between atoms: CD_7  and  NE_8 
REMARK       I    between atoms: NE_8  and  CZ_9 
REMARK       I    between atoms: CZ_9  and  NH1_10 
REMARK    7  A    between atoms: N_20  and  CA_21 
REMARK    8  A    between atoms: CA_21  and  CB_24 
REMARK    9  A    between atoms: CA_21  and  C_22 
REMARK       I    between atoms: C_22  and  N_28 
REMARK   10  A    between atoms: N_28  and  CA_29 
REMARK   11  A    between atoms: CA_29  and  C_30 
REMARK   12  A    between atoms: CA_29  and  CB_32 
REMARK       I    between atoms: C_30  and  N_36 
REMARK   13  A    between atoms: CB_32  and  SG_33 
REMARK   14  A    between atoms: N_36  and  CA_37 
REMARK   15  A    between atoms: CA_37  and  C_38 
REMARK   16  A    between atoms: CA_37  and  CB_40 
REMARK       I    between atoms: C_38  and  N_48 
REMARK   17  A    between atoms: CB_40  and  CG_41 
REMARK   18  A    between atoms: N_48  and  CA_49 
REMARK   19  A    between atoms: CA_49  and  C_50 
REMARK       I    between atoms: C_50  and  N_54 
REMARK   20  A    between atoms: N_54  and  CA_55 
REMARK   21  A    between atoms: CA_55  and  CB_58 
REMARK   22  A    between atoms: CA_55  and  C_56 
REMARK       I    between atoms: C_56  and  N_63 
REMARK   23  A    between atoms: CB_58  and  CG1_59 
REMARK   24  A    between atoms: CA_64  and  C_65 
REMARK       I    between atoms: C_65  and  N_70 
REMARK   25  A    between atoms: N_70  and  CA_71 
REMARK   26  A    between atoms: CA_71  and  CB_74 
REMARK   27  A    between atoms: CA_71  and  C_72 
REMARK       I    between atoms: C_72  and  N_79 
REMARK   28  A    between atoms: CB_74  and  CG_75 
REMARK   29  A    between atoms: CA_80  and  C_81 
REMARK       I    between atoms: C_81  and  N_86 
REMARK   30  A    between atoms: N_86  and  CA_87 
REMARK   31  A    between atoms: CA_87  and  C_88 
REMARK   32  A    between atoms: CA_87  and  CB_90 
REMARK       I    between atoms: C_88  and  N_95 
REMARK   33  A    between atoms: CB_90  and  CG1_91 
REMARK   34  A    between atoms: N_95  and  CA_96 
REMARK   35  A    between atoms: CA_96  and  C_97 
REMARK   36  A    between atoms: CA_96  and  CB_99 
REMARK       I    between atoms: C_97  and  N_103 
REMARK   37  A    between atoms: CB_99  and  SG_100 
REMARK   38  A    between atoms: N_103  and  CA_104 
REMARK   39  A    between atoms: CA_104  and  C_105 
REMARK   40  A    between atoms: CA_104  and  CB_107 
REMARK   41  A    between atoms: CB_107  and  CG_108 
ROOT
ATOM      1  N   ARG     1      51.064  39.850  48.998  1.00  0.00    -0.058 N 
ATOM      2  H1  ARG     1      51.300  39.710  48.037  1.00 99.99     0.276 HD
ATOM      3  H2  ARG     1      50.358  39.200  49.238  1.00 99.99     0.276 HD
ATOM      4  H3  ARG     1      50.635  40.740  49.107  1.00 99.99     0.276 HD
ENDROOT
BRANCH   1   5
ATOM      5  CA  ARG     1      52.280  39.693  49.845  1.00  0.00     0.255 C 
BRANCH   5   6
ATOM      6  CB  ARG     1      52.995  38.357  49.560  1.00  0.00     0.042 C 
BRANCH   6   7
ATOM      7  CG  ARG     1      52.181  37.067  49.711  1.00  0.00     0.027 C 
BRANCH   7   8
ATOM      8  CD  ARG     1      51.550  36.722  48.354  1.00  0.00     0.116 C 
BRANCH   8   9
ATOM      9  NE  ARG     1      52.525  36.793  47.248  1.00  0.00    -0.212 N 
ATOM     10  HE  ARG     1      53.427  37.138  47.496  1.00 99.99     0.178 HD
ATOM     11  CZ  ARG     1      52.299  36.478  45.965  1.00  0.00     0.666 C 
ATOM     12  NH2 ARG     1      53.298  36.479  45.090  1.00  0.00    -0.235 N 
ATOM     13  NH1 ARG     1      51.107  36.092  45.527  1.00  0.00    -0.235 N 
ATOM     14 2HH2 ARG     1      54.223  36.716  45.375  1.00 99.99     0.174 HD
ATOM     15 1HH2 ARG     1      53.116  36.234  44.140  1.00 99.99     0.174 HD
ATOM     16 1HH1 ARG     1      50.971  35.859  44.567  1.00 99.99     0.174 HD
ATOM     17 2HH1 ARG     1      50.345  36.050  46.170  1.00 99.99     0.174 HD
ENDBRANCH   8   9
ENDBRANCH   7   8
ENDBRANCH   6   7
ENDBRANCH   5   6
BRANCH   5  18
ATOM     18  C   ARG     1      53.315  40.837  49.669  1.00  0.00     0.259 C 
ATOM     19  O   ARG     1      53.419  41.484  48.625  1.00  0.00    -0.271 OA
ATOM     20  N   VAL     2      54.131  41.029  50.704  1.00  0.00    -0.338 N 
ATOM     21  H   VAL     2      54.284  40.314  51.386  1.00 99.99     0.164 HD
BRANCH  20  22
ATOM     22  CA  VAL     2      55.038  42.185  50.876  1.00  0.00     0.159 C 
BRANCH  22  23
ATOM     23  CB  VAL     2      56.061  41.938  52.010  1.00  0.00     0.029 C 
ATOM     24  CG1 VAL     2      56.804  43.227  52.373  1.00  0.00     0.002 C 
ATOM     25  CG2 VAL     2      55.438  41.351  53.287  1.00  0.00     0.002 C 
ENDBRANCH  22  23
BRANCH  22  26
ATOM     26  C   VAL     2      55.744  42.464  49.539  1.00  0.00     0.251 C 
ATOM     27  O   VAL     2      55.561  43.545  48.979  1.00  0.00    -0.271 OA
ATOM     28  N   CYS     3      56.614  41.547  49.118  1.00  0.00    -0.337 N 
ATOM     29  H   CYS     3      56.779  40.695  49.614  1.00 99.99     0.164 HD
BRANCH  28  30
ATOM     30  CA  CYS     3      57.431  41.705  47.894  1.00  0.00     0.170 C 
BRANCH  30  31
ATOM     31  C   CYS     3      57.489  40.372  47.131  1.00  0.00     0.252 C 
ATOM     32  O   CYS     3      58.402  39.578  47.353  1.00  0.00    -0.271 OA
ATOM     33  N   PHE     4      56.472  40.120  46.308  1.00  0.00    -0.337 N 
ATOM     34  H   PHE     4      55.762  40.801  46.128  1.00 99.99     0.164 HD
BRANCH  33  35
ATOM     35  CA  PHE     4      56.354  38.885  45.495  1.00  0.00     0.164 C 
BRANCH  35  36
ATOM     36  C   PHE     4      56.499  37.623  46.373  1.00  0.00     0.251 C 
ATOM     37  O   PHE     4      55.572  37.280  47.103  1.00  0.00    -0.271 OA
ATOM     38  N   ALA     5      57.658  36.963  46.304  1.00  0.00    -0.338 N 
ATOM     39  H   ALA     5      58.368  37.236  45.659  1.00 99.99     0.164 HD
BRANCH  38  40
ATOM     40  CA  ALA     5      57.911  35.693  47.031  1.00  0.00     0.159 C 
ATOM     41  CB  ALA     5      58.621  34.714  46.091  1.00  0.00     0.034 C 
BRANCH  40  42
ATOM     42  C   ALA     5      58.673  35.766  48.373  1.00  0.00     0.251 C 
ATOM     43  N   ILE     6      59.320  36.899  48.645  1.00  0.00    -0.338 N 
ATOM     44  H   ILE     6      59.233  37.700  48.061  1.00 99.99     0.164 HD
ATOM     45  O   ALA     5      58.734  34.786  49.108  1.00  0.00    -0.271 OA
BRANCH  43  46
ATOM     46  CA  ILE     6      60.160  37.117  49.851  1.00  0.00     0.160 C 
BRANCH  46  47
ATOM     47  CB  ILE     6      61.650  37.162  49.449  1.00  0.00     0.029 C 
ATOM     48  CG2 ILE     6      62.338  35.883  49.949  1.00  0.00     0.002 C 
BRANCH  47  49
ATOM     49  CG1 ILE     6      61.853  37.408  47.941  1.00  0.00     0.002 C 
ATOM     50  CD  ILE     6      63.188  36.890  47.391  1.00  0.00     0.000 C 
ENDBRANCH  47  49
ENDBRANCH  46  47
BRANCH  46  51
ATOM     51  C   ILE     6      59.743  38.371  50.658  1.00  0.00     0.254 C 
ATOM     52  O   ILE     6      60.031  39.468  50.187  1.00  0.00    -0.270 OA
ATOM     53  N   PRO     7      59.154  38.256  51.861  1.00  0.00    -0.312 N 
ATOM     54  CD  PRO     7      58.857  36.997  52.572  1.00  0.00     0.105 C 
ATOM     55  CA  PRO     7      58.684  39.420  52.649  1.00  0.00     0.163 C 
ATOM     56  CG  PRO     7      58.550  37.435  54.004  1.00  0.00     0.027 C 
ATOM     57  CB  PRO     7      57.911  38.813  53.826  1.00  0.00     0.034 C 
BRANCH  55  58
ATOM     58  C   PRO     7      59.776  40.425  53.073  1.00  0.00     0.251 C 
ATOM     59  N   LEU     8      60.993  39.891  53.163  1.00  0.00    -0.338 N 
ATOM     60  H   LEU     8      61.101  38.906  53.025  1.00 99.99     0.164 HD
ATOM     61  O   PRO     7      59.540  41.617  53.260  1.00  0.00    -0.271 OA
BRANCH  59  62
ATOM     62  CA  LEU     8      62.241  40.578  53.569  1.00  0.00     0.160 C 
BRANCH  62  63
ATOM     63  CB  LEU     8      63.225  39.603  54.239  1.00  0.00     0.032 C 
BRANCH  63  64
ATOM     64  CG  LEU     8      63.996  40.130  55.456  1.00  0.00     0.002 C 
ATOM     65  CD2 LEU     8      63.292  41.319  56.118  1.00  0.00     0.000 C 
ATOM     66  CD1 LEU     8      65.387  40.567  54.993  1.00  0.00     0.000 C 
ENDBRANCH  63  64
ENDBRANCH  62  63
BRANCH  62  67
ATOM     67  C   LEU     8      62.957  41.166  52.335  1.00  0.00     0.254 C 
ATOM     68  O   LEU     8      62.848  42.375  52.119  1.00  0.00    -0.270 OA
ATOM     69  N   PRO     9      63.565  40.329  51.473  1.00  0.00    -0.312 N 
ATOM     70  CD  PRO     9      63.764  38.881  51.695  1.00  0.00     0.105 C 
ATOM     71  CA  PRO     9      64.296  40.749  50.252  1.00  0.00     0.163 C 
ATOM     72  CG  PRO     9      64.871  38.479  50.720  1.00  0.00     0.027 C 
ATOM     73  CB  PRO     9      64.661  39.439  49.554  1.00  0.00     0.034 C 
BRANCH  71  74
ATOM     74  C   PRO     9      63.605  41.699  49.252  1.00  0.00     0.251 C 
ATOM     75  N   ILE    10      63.980  42.978  49.254  1.00  0.00    -0.338 N 
ATOM     76  H   ILE    10      64.529  43.353  49.996  1.00 99.99     0.164 HD
ATOM     77  O   PRO     9      62.626  41.300  48.632  1.00  0.00    -0.271 OA
BRANCH  75  78
ATOM     78  CA  ILE    10      63.501  43.997  48.286  1.00  0.00     0.159 C 
BRANCH  78  79
ATOM     79  C   ILE    10      64.264  43.974  46.933  1.00  0.00     0.251 C 
ATOM     80  O   ILE    10      65.249  44.685  46.751  1.00  0.00    -0.271 OA
ATOM     81  N   CYS    11      63.795  43.143  46.005  1.00  0.00    -0.337 N 
ATOM     82  H   CYS    11      62.947  42.637  46.148  1.00 99.99     0.164 HD
BRANCH  81  83
ATOM     83  CA  CYS    11      64.453  42.852  44.709  1.00  0.00     0.170 C 
BRANCH  83  84
ATOM     84  C   CYS    11      63.460  42.450  43.602  1.00  0.00     0.252 C 
ATOM     85  O   CYS    11      63.817  41.761  42.651  1.00  0.00    -0.271 OA
ATOM     86  N   HIS    12      62.180  42.633  43.916  1.00  0.00    -0.336 N 
ATOM     87  H   HIS    12      61.925  43.000  44.807  1.00 99.99     0.164 HD
BRANCH  86  88
ATOM     88  CA  HIS    12      61.047  42.361  43.012  1.00  0.00     0.174 C 
BRANCH  88  89
ATOM     89  C   HIS    12      60.135  43.594  42.873  1.00  0.00     0.207 C 
ATOM     90  O   HIS    12      59.671  44.102  43.915  1.00 99.99    -0.646 OA
ATOM     91  OXT HIS    12      59.916  43.978  41.703  1.00 99.99    -0.646 OA
ENDBRANCH  88  89
BRANCH  88  92
ATOM     92  CB  HIS    12      60.235  41.191  43.584  1.00  0.00     0.078 C 
BRANCH  92  93
ATOM     93  CG  HIS    12      60.929  39.823  43.534  1.00  0.00     0.057 A 
ATOM     94  ND1 HIS    12      61.722  39.417  42.543  1.00  0.00    -0.338 N 
ATOM     95  CE1 HIS    12      62.445  38.390  42.977  1.00  0.00     0.175 A 
ATOM     96  HD1 HIS    12      61.752  39.799  41.620  1.00 99.99     0.167 HD
ATOM     97  NE2 HIS    12      62.071  38.126  44.223  1.00  0.00    -0.223 NA
ATOM     98  CD2 HIS    12      61.133  39.005  44.567  1.00  0.00     0.113 A 
ENDBRANCH  92  93
ENDBRANCH  88  92
ENDBRANCH  86  88
ENDBRANCH  83  84
BRANCH  83  99
ATOM     99  CB  CYS    11      65.396  41.663  44.883  1.00  0.00     0.085 C 
BRANCH  99 100
ATOM    100  SG  CYS    11      64.729  40.247  45.827  1.00  0.00    -0.165 SA
ATOM    101  HG  CYS    11      64.549  39.495  44.741  1.00 99.99     0.102 HD
ENDBRANCH  99 100
ENDBRANCH  83  99
ENDBRANCH  81  83
ENDBRANCH  78  79
BRANCH  78 102
ATOM    102  CB  ILE    10      63.525  45.375  48.992  1.00  0.00     0.029 C 
ATOM    103  CG2 ILE    10      62.166  45.775  49.591  1.00  0.00     0.002 C 
BRANCH 102 104
ATOM    104  CG1 ILE    10      64.621  45.386  50.078  1.00  0.00     0.002 C 
ATOM    105  CD  ILE    10      65.837  46.271  49.770  1.00  0.00     0.000 C 
ENDBRANCH 102 104
ENDBRANCH  78 102
ENDBRANCH  75  78
ENDBRANCH  71  74
ENDBRANCH  62  67
ENDBRANCH  59  62
ENDBRANCH  55  58
ENDBRANCH  46  51
ENDBRANCH  43  46
ENDBRANCH  40  42
ENDBRANCH  38  40
ENDBRANCH  35  36
BRANCH  35 106
ATOM    106  CB  PHE     4      57.401  38.881  44.370  1.00  0.00     0.056 C 
BRANCH 106 107
ATOM    107  CG  PHE     4      56.812  38.727  42.967  1.00  0.00    -0.044 A 
ATOM    108  CD2 PHE     4      55.587  38.094  42.787  1.00  0.00     0.008 A 
ATOM    109  CE2 PHE     4      55.054  37.963  41.511  1.00  0.00     0.001 A 
ATOM    110  CZ  PHE     4      55.739  38.473  40.415  1.00  0.00     0.000 A 
ATOM    111  CE1 PHE     4      56.959  39.112  40.593  1.00  0.00     0.001 A 
ATOM    112  CD1 PHE     4      57.497  39.233  41.869  1.00  0.00     0.008 A 
ENDBRANCH 106 107
ENDBRANCH  35 106
ENDBRANCH  33  35
ENDBRANCH  30  31
BRANCH  30 113
ATOM    113  CB  CYS     3      58.868  42.103  48.266  1.00  0.00     0.085 C 
BRANCH 113 114
ATOM    114  SG  CYS     3      59.869  42.849  46.926  1.00  0.00    -0.165 SA
ATOM    115  HG  CYS     3      61.049  42.459  47.403  1.00 99.99     0.102 HD
ENDBRANCH 113 114
ENDBRANCH  30 113
ENDBRANCH  28  30
ENDBRANCH  22  26
ENDBRANCH  20  22
ENDBRANCH   5  18
ENDBRANCH   1   5
TORSDOF 41
ENDMDL
MODEL 9
REMARK VINA RESULT:      -4.8      3.403      9.418
REMARK WARNING: 32 MAX_TORS EXCEEDED!!!
REMARK  41 active torsions:
REMARK  status: ('A' for Active; 'I' for Inactive)
REMARK    1  A    between atoms: N_1  and  CA_2 
REMARK    2  A    between atoms: CA_2  and  CB_5 
REMARK    3  A    between atoms: CA_2  and  C_3 
REMARK       I    between atoms: C_3  and  N_20 
REMARK    4  A    between atoms: CB_5  and  CG_6 
REMARK    5  A    between atoms: CG_6  and  CD_7 
REMARK    6  A    between atoms: CD_7  and  NE_8 
REMARK       I    between atoms: NE_8  and  CZ_9 
REMARK       I    between atoms: CZ_9  and  NH1_10 
REMARK    7  A    between atoms: N_20  and  CA_21 
REMARK    8  A    between atoms: CA_21  and  CB_24 
REMARK    9  A    between atoms: CA_21  and  C_22 
REMARK       I    between atoms: C_22  and  N_28 
REMARK   10  A    between atoms: N_28  and  CA_29 
REMARK   11  A    between atoms: CA_29  and  C_30 
REMARK   12  A    between atoms: CA_29  and  CB_32 
REMARK       I    between atoms: C_30  and  N_36 
REMARK   13  A    between atoms: CB_32  and  SG_33 
REMARK   14  A    between atoms: N_36  and  CA_37 
REMARK   15  A    between atoms: CA_37  and  C_38 
REMARK   16  A    between atoms: CA_37  and  CB_40 
REMARK       I    between atoms: C_38  and  N_48 
REMARK   17  A    between atoms: CB_40  and  CG_41 
REMARK   18  A    between atoms: N_48  and  CA_49 
REMARK   19  A    between atoms: CA_49  and  C_50 
REMARK       I    between atoms: C_50  and  N_54 
REMARK   20  A    between atoms: N_54  and  CA_55 
REMARK   21  A    between atoms: CA_55  and  CB_58 
REMARK   22  A    between atoms: CA_55  and  C_56 
REMARK       I    between atoms: C_56  and  N_63 
REMARK   23  A    between atoms: CB_58  and  CG1_59 
REMARK   24  A    between atoms: CA_64  and  C_65 
REMARK       I    between atoms: C_65  and  N_70 
REMARK   25  A    between atoms: N_70  and  CA_71 
REMARK   26  A    between atoms: CA_71  and  CB_74 
REMARK   27  A    between atoms: CA_71  and  C_72 
REMARK       I    between atoms: C_72  and  N_79 
REMARK   28  A    between atoms: CB_74  and  CG_75 
REMARK   29  A    between atoms: CA_80  and  C_81 
REMARK       I    between atoms: C_81  and  N_86 
REMARK   30  A    between atoms: N_86  and  CA_87 
REMARK   31  A    between atoms: CA_87  and  C_88 
REMARK   32  A    between atoms: CA_87  and  CB_90 
REMARK       I    between atoms: C_88  and  N_95 
REMARK   33  A    between atoms: CB_90  and  CG1_91 
REMARK   34  A    between atoms: N_95  and  CA_96 
REMARK   35  A    between atoms: CA_96  and  C_97 
REMARK   36  A    between atoms: CA_96  and  CB_99 
REMARK       I    between atoms: C_97  and  N_103 
REMARK   37  A    between atoms: CB_99  and  SG_100 
REMARK   38  A    between atoms: N_103  and  CA_104 
REMARK   39  A    between atoms: CA_104  and  C_105 
REMARK   40  A    between atoms: CA_104  and  CB_107 
REMARK   41  A    between atoms: CB_107  and  CG_108 
ROOT
ATOM      1  N   ARG     1      60.690  43.592  42.905  1.00  0.00    -0.058 N 
ATOM      2  H1  ARG     1      60.747  43.646  43.901  1.00 99.99     0.276 HD
ATOM      3  H2  ARG     1      61.609  43.614  42.543  1.00 99.99     0.276 HD
ATOM      4  H3  ARG     1      60.261  44.417  42.553  1.00 99.99     0.276 HD
ENDROOT
BRANCH   1   5
ATOM      5  CA  ARG     1      59.962  42.354  42.508  1.00  0.00     0.255 C 
BRANCH   5   6
ATOM      6  CB  ARG     1      59.920  42.193  40.975  1.00  0.00     0.042 C 
BRANCH   6   7
ATOM      7  CG  ARG     1      59.522  43.416  40.141  1.00  0.00     0.027 C 
BRANCH   7   8
ATOM      8  CD  ARG     1      59.800  43.113  38.662  1.00  0.00     0.116 C 
BRANCH   8   9
ATOM      9  NE  ARG     1      58.972  43.934  37.756  1.00  0.00    -0.212 N 
ATOM     10  HE  ARG     1      58.863  44.887  38.025  1.00 99.99     0.178 HD
ATOM     11  CZ  ARG     1      58.341  43.511  36.652  1.00  0.00     0.666 C 
ATOM     12  NH2 ARG     1      57.721  44.380  35.862  1.00  0.00    -0.235 N 
ATOM     13  NH1 ARG     1      58.361  42.242  36.263  1.00  0.00    -0.235 N 
ATOM     14 2HH2 ARG     1      57.714  45.352  36.081  1.00 99.99     0.174 HD
ATOM     15 1HH2 ARG     1      57.262  44.052  35.039  1.00 99.99     0.174 HD
ATOM     16 1HH1 ARG     1      57.886  41.959  35.433  1.00 99.99     0.174 HD
ATOM     17 2HH1 ARG     1      58.848  41.572  36.819  1.00 99.99     0.174 HD
ENDBRANCH   8   9
ENDBRANCH   7   8
ENDBRANCH   6   7
ENDBRANCH   5   6
BRANCH   5  18
ATOM     18  C   ARG     1      60.565  41.055  43.109  1.00  0.00     0.259 C 
ATOM     19  O   ARG     1      60.354  40.701  44.271  1.00  0.00    -0.271 OA
ATOM     20  N   VAL     2      61.382  40.382  42.301  1.00  0.00    -0.338 N 
ATOM     21  H   VAL     2      61.820  40.823  41.518  1.00 99.99     0.164 HD
BRANCH  20  22
ATOM     22  CA  VAL     2      61.896  39.017  42.548  1.00  0.00     0.159 C 
BRANCH  22  23
ATOM     23  CB  VAL     2      61.944  38.186  41.244  1.00  0.00     0.029 C 
ATOM     24  CG1 VAL     2      61.024  36.964  41.334  1.00  0.00     0.002 C 
ATOM     25  CG2 VAL     2      61.577  38.989  39.986  1.00  0.00     0.002 C 
ENDBRANCH  22  23
BRANCH  22  26
ATOM     26  C   VAL     2      63.288  39.121  43.194  1.00  0.00     0.251 C 
ATOM     27  O   VAL     2      64.236  38.533  42.673  1.00  0.00    -0.271 OA
ATOM     28  N   CYS     3      63.407  39.947  44.232  1.00  0.00    -0.337 N 
ATOM     29  H   CYS     3      62.630  40.449  44.611  1.00 99.99     0.164 HD
BRANCH  28  30
ATOM     30  CA  CYS     3      64.695  40.217  44.910  1.00  0.00     0.170 C 
BRANCH  30  31
ATOM     31  C   CYS     3      64.448  40.499  46.402  1.00  0.00     0.252 C 
ATOM     32  O   CYS     3      63.371  40.195  46.913  1.00  0.00    -0.271 OA
ATOM     33  N   PHE     4      65.476  41.000  47.084  1.00  0.00    -0.337 N 
ATOM     34  H   PHE     4      66.328  41.265  46.630  1.00 99.99     0.164 HD
BRANCH  33  35
ATOM     35  CA  PHE     4      65.426  41.329  48.529  1.00  0.00     0.164 C 
BRANCH  35  36
ATOM     36  C   PHE     4      65.661  40.073  49.397  1.00  0.00     0.251 C 
ATOM     37  O   PHE     4      65.950  39.008  48.859  1.00  0.00    -0.271 OA
ATOM     38  N   ALA     5      65.517  40.211  50.718  1.00  0.00    -0.338 N 
ATOM     39  H   ALA     5      65.338  41.102  51.126  1.00 99.99     0.164 HD
BRANCH  38  40
ATOM     40  CA  ALA     5      65.785  39.112  51.679  1.00  0.00     0.159 C 
ATOM     41  CB  ALA     5      67.230  39.225  52.175  1.00  0.00     0.034 C 
BRANCH  40  42
ATOM     42  C   ALA     5      64.834  38.959  52.888  1.00  0.00     0.251 C 
ATOM     43  N   ILE     6      64.659  40.028  53.663  1.00  0.00    -0.338 N 
ATOM     44  H   ILE     6      65.039  40.914  53.420  1.00 99.99     0.164 HD
ATOM     45  O   ALA     5      64.334  37.870  53.151  1.00  0.00    -0.271 OA
BRANCH  43  46
ATOM     46  CA  ILE     6      63.840  40.040  54.903  1.00  0.00     0.160 C 
BRANCH  46  47
ATOM     47  CB  ILE     6      64.187  41.285  55.747  1.00  0.00     0.029 C 
ATOM     48  CG2 ILE     6      63.250  41.338  56.964  1.00  0.00     0.002 C 
BRANCH  47  49
ATOM     49  CG1 ILE     6      65.679  41.348  56.130  1.00  0.00     0.002 C 
ATOM     50  CD  ILE     6      65.979  42.217  57.359  1.00  0.00     0.000 C 
ENDBRANCH  47  49
ENDBRANCH  46  47
BRANCH  46  51
ATOM     51  C   ILE     6      62.320  39.940  54.624  1.00  0.00     0.254 C 
ATOM     52  O   ILE     6      61.726  38.963  55.072  1.00  0.00    -0.270 OA
ATOM     53  N   PRO     7      61.695  40.852  53.861  1.00  0.00    -0.312 N 
ATOM     54  CD  PRO     7      62.323  42.004  53.184  1.00  0.00     0.105 C 
ATOM     55  CA  PRO     7      60.234  40.837  53.609  1.00  0.00     0.163 C 
ATOM     56  CG  PRO     7      61.270  42.473  52.180  1.00  0.00     0.027 C 
ATOM     57  CB  PRO     7      59.946  42.152  52.875  1.00  0.00     0.034 C 
BRANCH  55  58
ATOM     58  C   PRO     7      59.693  39.587  52.883  1.00  0.00     0.251 C 
ATOM     59  N   LEU     8      58.381  39.406  53.029  1.00  0.00    -0.338 N 
ATOM     60  H   LEU     8      57.872  40.023  53.630  1.00 99.99     0.164 HD
ATOM     61  O   PRO     7      60.409  38.861  52.196  1.00  0.00    -0.271 OA
BRANCH  59  62
ATOM     62  CA  LEU     8      57.568  38.294  52.485  1.00  0.00     0.160 C 
BRANCH  62  63
ATOM     63  CB  LEU     8      56.188  38.225  53.161  1.00  0.00     0.032 C 
BRANCH  63  64
ATOM     64  CG  LEU     8      55.790  39.418  54.038  1.00  0.00     0.002 C 
ATOM     65  CD2 LEU     8      55.840  39.081  55.532  1.00  0.00     0.000 C 
ATOM     66  CD1 LEU     8      54.366  39.836  53.667  1.00  0.00     0.000 C 
ENDBRANCH  63  64
ENDBRANCH  62  63
BRANCH  62  67
ATOM     67  C   LEU     8      57.322  38.497  50.975  1.00  0.00     0.254 C 
ATOM     68  O   LEU     8      57.238  39.651  50.548  1.00  0.00    -0.270 OA
ATOM     69  N   PRO     9      57.081  37.421  50.202  1.00  0.00    -0.312 N 
ATOM     70  CD  PRO     9      57.206  36.016  50.643  1.00  0.00     0.105 C 
ATOM     71  CA  PRO     9      56.834  37.462  48.739  1.00  0.00     0.163 C 
ATOM     72  CG  PRO     9      57.302  35.202  49.352  1.00  0.00     0.027 C 
ATOM     73  CB  PRO     9      56.472  36.023  48.371  1.00  0.00     0.034 C 
BRANCH  71  74
ATOM     74  C   PRO     9      55.766  38.428  48.185  1.00  0.00     0.251 C 
ATOM     75  N   ILE    10      54.714  38.694  48.958  1.00  0.00    -0.338 N 
ATOM     76  H   ILE    10      54.515  38.145  49.765  1.00 99.99     0.164 HD
ATOM     77  O   PRO     9      55.823  38.767  47.009  1.00  0.00    -0.271 OA
BRANCH  75  78
ATOM     78  CA  ILE    10      53.656  39.684  48.628  1.00  0.00     0.159 C 
BRANCH  78  79
ATOM     79  C   ILE    10      53.974  41.119  49.128  1.00  0.00     0.251 C 
ATOM     80  O   ILE    10      53.147  41.763  49.770  1.00  0.00    -0.271 OA
ATOM     81  N   CYS    11      55.179  41.595  48.828  1.00  0.00    -0.337 N 
ATOM     82  H   CYS    11      55.802  41.087  48.237  1.00 99.99     0.164 HD
BRANCH  81  83
ATOM     83  CA  CYS    11      55.743  42.872  49.331  1.00  0.00     0.170 C 
BRANCH  83  84
ATOM     84  C   CYS    11      56.611  43.604  48.288  1.00  0.00     0.252 C 
ATOM     85  O   CYS    11      56.320  44.732  47.904  1.00  0.00    -0.271 OA
ATOM     86  N   HIS    12      57.811  43.065  48.095  1.00  0.00    -0.336 N 
ATOM     87  H   HIS    12      58.092  42.256  48.605  1.00 99.99     0.164 HD
BRANCH  86  88
ATOM     88  CA  HIS    12      58.806  43.559  47.124  1.00  0.00     0.174 C 
BRANCH  88  89
ATOM     89  C   HIS    12      58.314  43.370  45.678  1.00  0.00     0.207 C 
ATOM     90  O   HIS    12      58.450  44.321  44.880  1.00 99.99    -0.646 OA
ATOM     91  OXT HIS    12      57.790  42.262  45.423  1.00 99.99    -0.646 OA
ENDBRANCH  88  89
BRANCH  88  92
ATOM     92  CB  HIS    12      60.113  42.780  47.322  1.00  0.00     0.078 C 
BRANCH  92  93
ATOM     93  CG  HIS    12      59.949  41.344  47.839  1.00  0.00     0.057 A 
ATOM     94  ND1 HIS    12      59.642  40.298  47.073  1.00  0.00    -0.338 N 
ATOM     95  CE1 HIS    12      59.953  39.188  47.732  1.00  0.00     0.175 A 
ATOM     96  HD1 HIS    12      59.224  40.337  46.165  1.00 99.99     0.167 HD
ATOM     97  NE2 HIS    12      60.410  39.539  48.928  1.00  0.00    -0.223 NA
ATOM     98  CD2 HIS    12      60.404  40.867  48.998  1.00  0.00     0.113 A 
ENDBRANCH  92  93
ENDBRANCH  88  92
ENDBRANCH  86  88
ENDBRANCH  83  84
BRANCH  83  99
ATOM     99  CB  CYS    11      56.662  42.580  50.516  1.00  0.00     0.085 C 
BRANCH  99 100
ATOM    100  SG  CYS    11      55.993  42.996  52.165  1.00  0.00    -0.165 SA
ATOM    101  HG  CYS    11      57.103  42.628  52.805  1.00 99.99     0.102 HD
ENDBRANCH  99 100
ENDBRANCH  83  99
ENDBRANCH  81  83
ENDBRANCH  78  79
BRANCH  78 102
ATOM    102  CB  ILE    10      52.305  39.128  49.142  1.00  0.00     0.029 C 
ATOM    103  CG2 ILE    10      51.738  38.000  48.264  1.00  0.00     0.002 C 
BRANCH 102 104
ATOM    104  CG1 ILE    10      52.457  38.655  50.602  1.00  0.00     0.002 C 
ATOM    105  CD  ILE    10      51.358  39.135  51.562  1.00  0.00     0.000 C 
ENDBRANCH 102 104
ENDBRANCH  78 102
ENDBRANCH  75  78
ENDBRANCH  71  74
ENDBRANCH  62  67
ENDBRANCH  59  62
ENDBRANCH  55  58
ENDBRANCH  46  51
ENDBRANCH  43  46
ENDBRANCH  40  42
ENDBRANCH  38  40
ENDBRANCH  35  36
BRANCH  35 106
ATOM    106  CB  PHE     4      64.083  41.986  48.884  1.00  0.00     0.056 C 
BRANCH 106 107
ATOM    107  CG  PHE     4      64.149  43.506  49.036  1.00  0.00    -0.044 A 
ATOM    108  CD2 PHE     4      65.372  44.165  48.972  1.00  0.00     0.008 A 
ATOM    109  CE2 PHE     4      65.425  45.546  49.104  1.00  0.00     0.001 A 
ATOM    110  CZ  PHE     4      64.255  46.273  49.290  1.00  0.00     0.000 A 
ATOM    111  CE1 PHE     4      63.032  45.618  49.347  1.00  0.00     0.001 A 
ATOM    112  CD1 PHE     4      62.980  44.234  49.226  1.00  0.00     0.008 A 
ENDBRANCH 106 107
ENDBRANCH  35 106
ENDBRANCH  33  35
ENDBRANCH  30  31
BRANCH  30 113
ATOM    113  CB  CYS     3      65.365  41.456  44.297  1.00  0.00     0.085 C 
BRANCH 113 114
ATOM    114  SG  CYS     3      64.343  42.430  43.131  1.00  0.00    -0.165 SA
ATOM    115  HG  CYS     3      63.821  43.240  44.050  1.00 99.99     0.102 HD
ENDBRANCH 113 114
ENDBRANCH  30 113
ENDBRANCH  28  30
ENDBRANCH  22  26
ENDBRANCH  20  22
ENDBRANCH   5  18
ENDBRANCH   1   5
TORSDOF 41
ENDMDL
