MODEL 1
REMARK VINA RESULT:      -5.0      0.000      0.000
REMARK  27 active torsions:
REMARK  status: ('A' for Active; 'I' for Inactive)
REMARK    1  A    between atoms: N_1  and  CA_2 
REMARK    2  A    between atoms: CA_2  and  C_3 
REMARK       I    between atoms: C_3  and  N_8 
REMARK    3  A    between atoms: N_8  and  CA_9 
REMARK    4  A    between atoms: CA_9  and  C_10 
REMARK    5  A    between atoms: CA_9  and  CB_12 
REMARK       I    between atoms: C_10  and  N_16 
REMARK    6  A    between atoms: CB_12  and  OG_13 
REMARK    7  A    between atoms: N_16  and  CA_17 
REMARK    8  A    between atoms: CA_17  and  C_18 
REMARK    9  A    between atoms: CA_17  and  CB_20 
REMARK       I    between atoms: C_18  and  N_26 
REMARK   10  A    between atoms: CB_20  and  CG_21 
REMARK   11  A    between atoms: CG_21  and  CD_22 
REMARK   12  A    between atoms: N_26  and  CA_27 
REMARK   13  A    between atoms: CA_27  and  CB_30 
REMARK   14  A    between atoms: CA_27  and  C_28 
REMARK       I    between atoms: C_28  and  N_35 
REMARK   15  A    between atoms: CB_30  and  CG1_31 
REMARK   16  A    between atoms: N_35  and  CA_36 
REMARK   17  A    between atoms: CA_36  and  CB_39 
REMARK   18  A    between atoms: CA_36  and  C_37 
REMARK       I    between atoms: C_37  and  N_47 
REMARK   19  A    between atoms: CB_39  and  CG_40 
REMARK   20  A    between atoms: CG_40  and  CD_41 
REMARK       I    between atoms: CD_41  and  NE2_43 
REMARK   21  A    between atoms: CA_48  and  C_49 
REMARK       I    between atoms: C_49  and  N_54 
REMARK   22  A    between atoms: N_54  and  CA_55 
REMARK   23  A    between atoms: CA_55  and  CB_58 
REMARK   24  A    between atoms: CA_55  and  C_56 
REMARK   25  A    between atoms: CB_58  and  CG_59 
REMARK   26  A    between atoms: CG_59  and  CD_60 
REMARK   27  A    between atoms: CD_60  and  NE_61 
REMARK       I    between atoms: NE_61  and  CZ_62 
REMARK       I    between atoms: CZ_62  and  NH1_63 
ROOT
ATOM      1  N   GLY     1      60.921  40.185  46.963  1.00  0.00    -0.055 N 
ATOM      2  H1  GLY     1      60.564  40.919  47.542  1.00 99.99     0.276 HD
ATOM      3  H2  GLY     1      60.983  39.346  47.473  1.00 99.99     0.276 HD
ATOM      4  H3  GLY     1      61.844  40.409  46.703  1.00 99.99     0.276 HD
ENDROOT
BRANCH   1   5
ATOM      5  CA  GLY     1      60.058  40.067  45.774  1.00  0.00     0.292 C 
BRANCH   5   6
ATOM      6  C   GLY     1      59.040  41.221  45.791  1.00  0.00     0.261 C 
ATOM      7  N   SER     2      59.554  42.365  46.233  1.00  0.00    -0.335 N 
ATOM      8  H   SER     2      60.515  42.449  46.502  1.00 99.99     0.164 HD
ATOM      9  O   GLY     1      58.064  41.181  45.042  1.00  0.00    -0.270 OA
BRANCH   7  10
ATOM     10  CA  SER     2      58.832  43.652  46.311  1.00  0.00     0.189 C 
BRANCH  10  11
ATOM     11  C   SER     2      57.601  43.670  47.236  1.00  0.00     0.253 C 
ATOM     12  O   SER     2      57.171  44.757  47.609  1.00  0.00    -0.270 OA
ATOM     13  N   GLU     3      57.205  42.509  47.768  1.00  0.00    -0.337 N 
ATOM     14  H   GLU     3      57.622  41.655  47.461  1.00 99.99     0.164 HD
BRANCH  13  15
ATOM     15  CA  GLU     3      56.019  42.343  48.653  1.00  0.00     0.160 C 
BRANCH  15  16
ATOM     16  C   GLU     3      56.185  42.813  50.128  1.00  0.00     0.251 C 
ATOM     17  N   ILE     4      56.738  41.940  50.967  1.00  0.00    -0.338 N 
ATOM     18  H   ILE     4      56.862  40.990  50.679  1.00 99.99     0.164 HD
ATOM     19  O   GLU     3      55.706  43.876  50.519  1.00  0.00    -0.271 OA
BRANCH  17  20
ATOM     20  CA  ILE     4      57.180  42.219  52.357  1.00  0.00     0.159 C 
BRANCH  20  21
ATOM     21  CB  ILE     4      56.887  41.014  53.289  1.00  0.00     0.029 C 
ATOM     22  CG2 ILE     4      55.590  40.299  52.866  1.00  0.00     0.002 C 
BRANCH  21  23
ATOM     23  CG1 ILE     4      58.044  39.997  53.297  1.00  0.00     0.002 C 
ATOM     24  CD  ILE     4      58.444  39.507  54.696  1.00  0.00     0.000 C 
ENDBRANCH  21  23
ENDBRANCH  20  21
BRANCH  20  25
ATOM     25  C   ILE     4      58.693  42.559  52.384  1.00  0.00     0.251 C 
ATOM     26  O   ILE     4      59.192  43.185  53.319  1.00  0.00    -0.271 OA
ATOM     27  N   GLN     5      59.423  42.089  51.374  1.00  0.00    -0.338 N 
ATOM     28  H   GLN     5      59.008  41.802  50.508  1.00 99.99     0.164 HD
BRANCH  27  29
ATOM     29  CA  GLN     5      60.898  42.118  51.313  1.00  0.00     0.160 C 
BRANCH  29  30
ATOM     30  CB  GLN     5      61.396  40.666  51.396  1.00  0.00     0.042 C 
BRANCH  30  31
ATOM     31  CG  GLN     5      62.643  40.467  52.272  1.00  0.00     0.090 C 
BRANCH  31  32
ATOM     32  CD  GLN     5      63.837  39.881  51.508  1.00  0.00     0.227 C 
ATOM     33  NE2 GLN     5      63.883  40.087  50.210  1.00  0.00    -0.369 N 
ATOM     34 2HE2 GLN     5      63.146  40.549  49.727  1.00 99.99     0.159 HD
ATOM     35 1HE2 GLN     5      64.666  39.704  49.727  1.00 99.99     0.159 HD
ATOM     36  OE1 GLN     5      64.719  39.244  52.064  1.00  0.00    -0.273 OA
ENDBRANCH  31  32
ENDBRANCH  30  31
ENDBRANCH  29  30
BRANCH  29  37
ATOM     37  C   GLN     5      61.383  42.769  49.998  1.00  0.00     0.254 C 
ATOM     38  O   GLN     5      60.901  42.387  48.927  1.00  0.00    -0.270 OA
ATOM     39  N   PRO     6      62.260  43.788  50.065  1.00  0.00    -0.312 N 
ATOM     40  CD  PRO     6      62.556  44.606  51.259  1.00  0.00     0.105 C 
ATOM     41  CA  PRO     6      62.909  44.384  48.877  1.00  0.00     0.163 C 
ATOM     42  CG  PRO     6      63.286  45.836  50.714  1.00  0.00     0.027 C 
ATOM     43  CB  PRO     6      63.975  45.310  49.458  1.00  0.00     0.034 C 
BRANCH  41  44
ATOM     44  C   PRO     6      63.517  43.314  47.959  1.00  0.00     0.251 C 
ATOM     45  N   ARG     7      63.214  43.463  46.673  1.00  0.00    -0.336 N 
ATOM     46  H   ARG     7      62.902  44.339  46.308  1.00 99.99     0.164 HD
ATOM     47  O   PRO     6      64.256  42.435  48.396  1.00  0.00    -0.271 OA
BRANCH  45  48
ATOM     48  CA  ARG     7      63.418  42.401  45.664  1.00  0.00     0.168 C 
BRANCH  48  49
ATOM     49  CB  ARG     7      62.659  42.793  44.390  1.00  0.00     0.035 C 
BRANCH  49  50
ATOM     50  CG  ARG     7      62.162  41.593  43.573  1.00  0.00     0.027 C 
BRANCH  50  51
ATOM     51  CD  ARG     7      61.392  42.003  42.309  1.00  0.00     0.116 C 
BRANCH  51  52
ATOM     52  NE  ARG     7      59.980  41.569  42.383  1.00  0.00    -0.212 N 
ATOM     53  CZ  ARG     7      58.927  42.176  41.832  1.00  0.00     0.666 C 
ATOM     54  NH1 ARG     7      59.058  43.273  41.104  1.00  0.00    -0.235 N 
ATOM     55  NH2 ARG     7      57.707  41.695  42.024  1.00  0.00    -0.235 N 
ATOM     56 2HH1 ARG     7      59.973  43.642  40.952  1.00 99.99     0.174 HD
ATOM     57 1HH1 ARG     7      58.263  43.717  40.697  1.00 99.99     0.174 HD
ATOM     58 1HH2 ARG     7      56.928  42.159  41.608  1.00 99.99     0.174 HD
ATOM     59 2HH2 ARG     7      57.564  40.877  42.579  1.00 99.99     0.174 HD
ATOM     60  HE  ARG     7      59.833  40.704  42.857  1.00 99.99     0.178 HD
ENDBRANCH  51  52
ENDBRANCH  50  51
ENDBRANCH  49  50
ENDBRANCH  48  49
BRANCH  48  61
ATOM     61  C   ARG     7      64.881  42.106  45.306  1.00  0.00     0.206 C 
ATOM     62  O   ARG     7      65.224  40.909  45.194  1.00 99.99    -0.646 OA
ATOM     63  OXT ARG     7      65.614  43.102  45.133  1.00 99.99    -0.646 OA
ENDBRANCH  48  61
ENDBRANCH  45  48
ENDBRANCH  41  44
ENDBRANCH  29  37
ENDBRANCH  27  29
ENDBRANCH  20  25
ENDBRANCH  17  20
ENDBRANCH  15  16
BRANCH  15  64
ATOM     64  CB  GLU     3      55.511  40.884  48.629  1.00  0.00     0.043 C 
BRANCH  64  65
ATOM     65  CG  GLU     3      56.391  39.805  47.975  1.00  0.00     0.100 C 
BRANCH  65  66
ATOM     66  CD  GLU     3      57.539  39.283  48.844  1.00  0.00     0.185 C 
ATOM     67  OE2 GLU     3      57.443  38.094  49.217  1.00  0.00    -0.647 OA
ATOM     68  OE1 GLU     3      58.478  40.057  49.115  1.00  0.00    -0.647 OA
ENDBRANCH  65  66
ENDBRANCH  64  65
ENDBRANCH  15  64
ENDBRANCH  13  15
ENDBRANCH  10  11
BRANCH  10  69
ATOM     69  CB  SER     2      58.452  44.082  44.890  1.00  0.00     0.169 C 
BRANCH  69  70
ATOM     70  OG  SER     2      59.651  44.380  44.157  1.00  0.00    -0.380 OA
ATOM     71  HG  SER     2      59.418  44.465  43.182  1.00 99.99     0.211 HD
ENDBRANCH  69  70
ENDBRANCH  10  69
ENDBRANCH   7  10
ENDBRANCH   5   6
ENDBRANCH   1   5
TORSDOF 27
ENDMDL
MODEL 2
REMARK VINA RESULT:      -4.7      2.181      8.527
REMARK  27 active torsions:
REMARK  status: ('A' for Active; 'I' for Inactive)
REMARK    1  A    between atoms: N_1  and  CA_2 
REMARK    2  A    between atoms: CA_2  and  C_3 
REMARK       I    between atoms: C_3  and  N_8 
REMARK    3  A    between atoms: N_8  and  CA_9 
REMARK    4  A    between atoms: CA_9  and  C_10 
REMARK    5  A    between atoms: CA_9  and  CB_12 
REMARK       I    between atoms: C_10  and  N_16 
REMARK    6  A    between atoms: CB_12  and  OG_13 
REMARK    7  A    between atoms: N_16  and  CA_17 
REMARK    8  A    between atoms: CA_17  and  C_18 
REMARK    9  A    between atoms: CA_17  and  CB_20 
REMARK       I    between atoms: C_18  and  N_26 
REMARK   10  A    between atoms: CB_20  and  CG_21 
REMARK   11  A    between atoms: CG_21  and  CD_22 
REMARK   12  A    between atoms: N_26  and  CA_27 
REMARK   13  A    between atoms: CA_27  and  CB_30 
REMARK   14  A    between atoms: CA_27  and  C_28 
REMARK       I    between atoms: C_28  and  N_35 
REMARK   15  A    between atoms: CB_30  and  CG1_31 
REMARK   16  A    between atoms: N_35  and  CA_36 
REMARK   17  A    between atoms: CA_36  and  CB_39 
REMARK   18  A    between atoms: CA_36  and  C_37 
REMARK       I    between atoms: C_37  and  N_47 
REMARK   19  A    between atoms: CB_39  and  CG_40 
REMARK   20  A    between atoms: CG_40  and  CD_41 
REMARK       I    between atoms: CD_41  and  NE2_43 
REMARK   21  A    between atoms: CA_48  and  C_49 
REMARK       I    between atoms: C_49  and  N_54 
REMARK   22  A    between atoms: N_54  and  CA_55 
REMARK   23  A    between atoms: CA_55  and  CB_58 
REMARK   24  A    between atoms: CA_55  and  C_56 
REMARK   25  A    between atoms: CB_58  and  CG_59 
REMARK   26  A    between atoms: CG_59  and  CD_60 
REMARK   27  A    between atoms: CD_60  and  NE_61 
REMARK       I    between atoms: NE_61  and  CZ_62 
REMARK       I    between atoms: CZ_62  and  NH1_63 
ROOT
ATOM      1  N   GLY     1      61.785  43.367  51.034  1.00  0.00    -0.055 N 
ATOM      2  H1  GLY     1      62.310  42.916  50.310  1.00 99.99     0.276 HD
ATOM      3  H2  GLY     1      61.589  42.732  51.760  1.00 99.99     0.276 HD
ATOM      4  H3  GLY     1      60.909  43.632  50.668  1.00 99.99     0.276 HD
ENDROOT
BRANCH   1   5
ATOM      5  CA  GLY     1      62.538  44.546  51.493  1.00  0.00     0.292 C 
BRANCH   5   6
ATOM      6  C   GLY     1      63.208  45.205  50.275  1.00  0.00     0.261 C 
ATOM      7  N   SER     2      64.275  44.540  49.841  1.00  0.00    -0.335 N 
ATOM      8  H   SER     2      64.580  43.687  50.267  1.00 99.99     0.164 HD
ATOM      9  O   GLY     1      62.546  45.942  49.543  1.00  0.00    -0.270 OA
BRANCH   7  10
ATOM     10  CA  SER     2      65.087  44.903  48.661  1.00  0.00     0.189 C 
BRANCH  10  11
ATOM     11  C   SER     2      64.861  44.039  47.406  1.00  0.00     0.253 C 
ATOM     12  O   SER     2      65.344  44.421  46.344  1.00  0.00    -0.270 OA
ATOM     13  N   GLU     3      63.965  43.048  47.485  1.00  0.00    -0.337 N 
ATOM     14  H   GLU     3      63.567  42.810  48.369  1.00 99.99     0.164 HD
BRANCH  13  15
ATOM     15  CA  GLU     3      63.650  42.101  46.380  1.00  0.00     0.160 C 
BRANCH  15  16
ATOM     16  C   GLU     3      62.562  42.558  45.366  1.00  0.00     0.251 C 
ATOM     17  N   ILE     4      61.300  42.287  45.691  1.00  0.00    -0.338 N 
ATOM     18  H   ILE     4      61.110  41.669  46.455  1.00 99.99     0.164 HD
ATOM     19  O   GLU     3      62.864  43.019  44.266  1.00  0.00    -0.271 OA
BRANCH  17  20
ATOM     20  CA  ILE     4      60.087  42.789  44.997  1.00  0.00     0.159 C 
BRANCH  20  21
ATOM     21  CB  ILE     4      59.650  41.823  43.866  1.00  0.00     0.029 C 
ATOM     22  CG2 ILE     4      60.027  42.392  42.485  1.00  0.00     0.002 C 
BRANCH  21  23
ATOM     23  CG1 ILE     4      60.281  40.427  44.024  1.00  0.00     0.002 C 
ATOM     24  CD  ILE     4      61.180  40.003  42.853  1.00  0.00     0.000 C 
ENDBRANCH  21  23
ENDBRANCH  20  21
BRANCH  20  25
ATOM     25  C   ILE     4      58.929  42.985  46.010  1.00  0.00     0.251 C 
ATOM     26  O   ILE     4      58.117  43.901  45.883  1.00  0.00    -0.271 OA
ATOM     27  N   GLN     5      58.831  42.079  46.980  1.00  0.00    -0.338 N 
ATOM     28  H   GLN     5      59.602  41.490  47.236  1.00 99.99     0.164 HD
BRANCH  27  29
ATOM     29  CA  GLN     5      57.694  41.959  47.914  1.00  0.00     0.160 C 
BRANCH  29  30
ATOM     30  CB  GLN     5      57.102  40.550  47.748  1.00  0.00     0.042 C 
BRANCH  30  31
ATOM     31  CG  GLN     5      55.650  40.522  47.242  1.00  0.00     0.090 C 
BRANCH  31  32
ATOM     32  CD  GLN     5      55.537  40.333  45.724  1.00  0.00     0.227 C 
ATOM     33  NE2 GLN     5      56.626  39.978  45.077  1.00  0.00    -0.369 N 
ATOM     34 2HE2 GLN     5      57.505  39.894  45.538  1.00 99.99     0.159 HD
ATOM     35 1HE2 GLN     5      56.536  39.854  44.093  1.00 99.99     0.159 HD
ATOM     36  OE1 GLN     5      54.488  40.502  45.122  1.00  0.00    -0.273 OA
ENDBRANCH  31  32
ENDBRANCH  30  31
ENDBRANCH  29  30
BRANCH  29  37
ATOM     37  C   GLN     5      58.154  42.171  49.373  1.00  0.00     0.254 C 
ATOM     38  O   GLN     5      59.358  42.110  49.637  1.00  0.00    -0.270 OA
ATOM     39  N   PRO     6      57.233  42.493  50.302  1.00  0.00    -0.312 N 
ATOM     40  CD  PRO     6      55.878  43.019  50.040  1.00  0.00     0.105 C 
ATOM     41  CA  PRO     6      57.528  42.568  51.749  1.00  0.00     0.163 C 
ATOM     42  CG  PRO     6      55.415  43.582  51.386  1.00  0.00     0.027 C 
ATOM     43  CB  PRO     6      56.157  42.719  52.403  1.00  0.00     0.034 C 
BRANCH  41  44
ATOM     44  C   PRO     6      58.268  41.320  52.250  1.00  0.00     0.251 C 
ATOM     45  N   ARG     7      59.439  41.573  52.826  1.00  0.00    -0.336 N 
ATOM     46  H   ARG     7      59.661  42.480  53.180  1.00 99.99     0.164 HD
ATOM     47  O   PRO     6      57.773  40.198  52.156  1.00  0.00    -0.271 OA
BRANCH  45  48
ATOM     48  CA  ARG     7      60.453  40.530  53.093  1.00  0.00     0.168 C 
BRANCH  48  49
ATOM     49  CB  ARG     7      61.067  40.101  51.754  1.00  0.00     0.035 C 
BRANCH  49  50
ATOM     50  CG  ARG     7      61.152  38.579  51.574  1.00  0.00     0.027 C 
BRANCH  50  51
ATOM     51  CD  ARG     7      62.449  37.979  52.136  1.00  0.00     0.116 C 
BRANCH  51  52
ATOM     52  NE  ARG     7      63.604  38.861  51.862  1.00  0.00    -0.212 N 
ATOM     53  CZ  ARG     7      64.719  38.968  52.588  1.00  0.00     0.666 C 
ATOM     54  NH1 ARG     7      64.918  38.233  53.671  1.00  0.00    -0.235 N 
ATOM     55  NH2 ARG     7      65.655  39.841  52.245  1.00  0.00    -0.235 N 
ATOM     56 2HH1 ARG     7      64.220  37.571  53.937  1.00 99.99     0.174 HD
ATOM     57 1HH1 ARG     7      65.755  38.322  54.205  1.00 99.99     0.174 HD
ATOM     58 1HH2 ARG     7      66.482  39.913  52.797  1.00 99.99     0.174 HD
ATOM     59 2HH2 ARG     7      65.536  40.425  51.444  1.00 99.99     0.174 HD
ATOM     60  HE  ARG     7      63.540  39.383  51.015  1.00 99.99     0.178 HD
ENDBRANCH  51  52
ENDBRANCH  50  51
ENDBRANCH  49  50
ENDBRANCH  48  49
BRANCH  48  61
ATOM     61  C   ARG     7      61.579  40.938  54.053  1.00  0.00     0.206 C 
ATOM     62  O   ARG     7      62.095  42.066  53.902  1.00 99.99    -0.646 OA
ATOM     63  OXT ARG     7      61.878  40.103  54.932  1.00 99.99    -0.646 OA
ENDBRANCH  48  61
ENDBRANCH  45  48
ENDBRANCH  41  44
ENDBRANCH  29  37
ENDBRANCH  27  29
ENDBRANCH  20  25
ENDBRANCH  17  20
ENDBRANCH  15  16
BRANCH  15  64
ATOM     64  CB  GLU     3      63.287  40.706  46.935  1.00  0.00     0.043 C 
BRANCH  64  65
ATOM     65  CG  GLU     3      64.275  40.008  47.885  1.00  0.00     0.100 C 
BRANCH  65  66
ATOM     66  CD  GLU     3      64.726  40.842  49.088  1.00  0.00     0.185 C 
ATOM     67  OE2 GLU     3      63.818  41.233  49.852  1.00  0.00    -0.647 OA
ATOM     68  OE1 GLU     3      65.944  41.071  49.228  1.00  0.00    -0.647 OA
ENDBRANCH  65  66
ENDBRANCH  64  65
ENDBRANCH  15  64
ENDBRANCH  13  15
ENDBRANCH  10  11
BRANCH  10  69
ATOM     69  CB  SER     2      66.564  44.895  49.068  1.00  0.00     0.169 C 
BRANCH  69  70
ATOM     70  OG  SER     2      67.100  43.580  48.855  1.00  0.00    -0.380 OA
ATOM     71  HG  SER     2      67.396  43.206  49.741  1.00 99.99     0.211 HD
ENDBRANCH  69  70
ENDBRANCH  10  69
ENDBRANCH   7  10
ENDBRANCH   5   6
ENDBRANCH   1   5
TORSDOF 27
ENDMDL
MODEL 3
REMARK VINA RESULT:      -4.6      1.910      3.518
REMARK  27 active torsions:
REMARK  status: ('A' for Active; 'I' for Inactive)
REMARK    1  A    between atoms: N_1  and  CA_2 
REMARK    2  A    between atoms: CA_2  and  C_3 
REMARK       I    between atoms: C_3  and  N_8 
REMARK    3  A    between atoms: N_8  and  CA_9 
REMARK    4  A    between atoms: CA_9  and  C_10 
REMARK    5  A    between atoms: CA_9  and  CB_12 
REMARK       I    between atoms: C_10  and  N_16 
REMARK    6  A    between atoms: CB_12  and  OG_13 
REMARK    7  A    between atoms: N_16  and  CA_17 
REMARK    8  A    between atoms: CA_17  and  C_18 
REMARK    9  A    between atoms: CA_17  and  CB_20 
REMARK       I    between atoms: C_18  and  N_26 
REMARK   10  A    between atoms: CB_20  and  CG_21 
REMARK   11  A    between atoms: CG_21  and  CD_22 
REMARK   12  A    between atoms: N_26  and  CA_27 
REMARK   13  A    between atoms: CA_27  and  CB_30 
REMARK   14  A    between atoms: CA_27  and  C_28 
REMARK       I    between atoms: C_28  and  N_35 
REMARK   15  A    between atoms: CB_30  and  CG1_31 
REMARK   16  A    between atoms: N_35  and  CA_36 
REMARK   17  A    between atoms: CA_36  and  CB_39 
REMARK   18  A    between atoms: CA_36  and  C_37 
REMARK       I    between atoms: C_37  and  N_47 
REMARK   19  A    between atoms: CB_39  and  CG_40 
REMARK   20  A    between atoms: CG_40  and  CD_41 
REMARK       I    between atoms: CD_41  and  NE2_43 
REMARK   21  A    between atoms: CA_48  and  C_49 
REMARK       I    between atoms: C_49  and  N_54 
REMARK   22  A    between atoms: N_54  and  CA_55 
REMARK   23  A    between atoms: CA_55  and  CB_58 
REMARK   24  A    between atoms: CA_55  and  C_56 
REMARK   25  A    between atoms: CB_58  and  CG_59 
REMARK   26  A    between atoms: CG_59  and  CD_60 
REMARK   27  A    between atoms: CD_60  and  NE_61 
REMARK       I    between atoms: NE_61  and  CZ_62 
REMARK       I    between atoms: CZ_62  and  NH1_63 
ROOT
ATOM      1  N   GLY     1      60.912  39.715  47.453  1.00  0.00    -0.055 N 
ATOM      2  H1  GLY     1      60.394  40.407  47.958  1.00 99.99     0.276 HD
ATOM      3  H2  GLY     1      60.684  38.813  47.776  1.00 99.99     0.276 HD
ATOM      4  H3  GLY     1      61.871  39.834  47.649  1.00 99.99     0.276 HD
ENDROOT
BRANCH   1   5
ATOM      5  CA  GLY     1      60.647  39.890  46.015  1.00  0.00     0.292 C 
BRANCH   5   6
ATOM      6  C   GLY     1      59.565  40.971  45.844  1.00  0.00     0.261 C 
ATOM      7  N   SER     2      59.976  42.183  46.203  1.00  0.00    -0.335 N 
ATOM      8  H   SER     2      60.907  42.356  46.528  1.00 99.99     0.164 HD
ATOM      9  O   GLY     1      58.653  40.794  45.036  1.00  0.00    -0.270 OA
BRANCH   7  10
ATOM     10  CA  SER     2      59.175  43.422  46.101  1.00  0.00     0.189 C 
BRANCH  10  11
ATOM     11  C   SER     2      57.913  43.474  46.982  1.00  0.00     0.253 C 
ATOM     12  O   SER     2      57.452  44.574  47.270  1.00  0.00    -0.270 OA
ATOM     13  N   GLU     3      57.520  42.341  47.575  1.00  0.00    -0.337 N 
ATOM     14  H   GLU     3      57.964  41.478  47.337  1.00 99.99     0.164 HD
BRANCH  13  15
ATOM     15  CA  GLU     3      56.309  42.208  48.429  1.00  0.00     0.160 C 
BRANCH  15  16
ATOM     16  C   GLU     3      56.441  42.702  49.900  1.00  0.00     0.251 C 
ATOM     17  N   ILE     4      57.133  41.920  50.725  1.00  0.00    -0.338 N 
ATOM     18  H   ILE     4      57.383  40.996  50.434  1.00 99.99     0.164 HD
ATOM     19  O   GLU     3      55.826  43.688  50.303  1.00  0.00    -0.271 OA
BRANCH  17  20
ATOM     20  CA  ILE     4      57.564  42.263  52.105  1.00  0.00     0.159 C 
BRANCH  20  21
ATOM     21  CB  ILE     4      57.145  41.160  53.112  1.00  0.00     0.029 C 
ATOM     22  CG2 ILE     4      55.628  41.209  53.376  1.00  0.00     0.002 C 
BRANCH  21  23
ATOM     23  CG1 ILE     4      57.524  39.752  52.615  1.00  0.00     0.002 C 
ATOM     24  CD  ILE     4      57.739  38.724  53.736  1.00  0.00     0.000 C 
ENDBRANCH  21  23
ENDBRANCH  20  21
BRANCH  20  25
ATOM     25  C   ILE     4      59.100  42.475  52.152  1.00  0.00     0.251 C 
ATOM     26  O   ILE     4      59.642  43.001  53.123  1.00  0.00    -0.271 OA
ATOM     27  N   GLN     5      59.794  42.007  51.117  1.00  0.00    -0.338 N 
ATOM     28  H   GLN     5      59.361  41.806  50.235  1.00 99.99     0.164 HD
BRANCH  27  29
ATOM     29  CA  GLN     5      61.266  41.917  51.059  1.00  0.00     0.160 C 
BRANCH  29  30
ATOM     30  CB  GLN     5      61.634  40.442  50.834  1.00  0.00     0.042 C 
BRANCH  30  31
ATOM     31  CG  GLN     5      60.983  39.462  51.825  1.00  0.00     0.090 C 
BRANCH  31  32
ATOM     32  CD  GLN     5      60.809  38.048  51.258  1.00  0.00     0.227 C 
ATOM     33  NE2 GLN     5      60.445  37.102  52.096  1.00  0.00    -0.369 N 
ATOM     34 2HE2 GLN     5      60.347  37.277  53.071  1.00 99.99     0.159 HD
ATOM     35 1HE2 GLN     5      60.332  36.189  51.713  1.00 99.99     0.159 HD
ATOM     36  OE1 GLN     5      60.996  37.790  50.079  1.00  0.00    -0.273 OA
ENDBRANCH  31  32
ENDBRANCH  30  31
ENDBRANCH  29  30
BRANCH  29  37
ATOM     37  C   GLN     5      61.826  42.783  49.908  1.00  0.00     0.254 C 
ATOM     38  O   GLN     5      61.606  42.445  48.742  1.00  0.00    -0.270 OA
ATOM     39  N   PRO     6      62.472  43.924  50.212  1.00  0.00    -0.312 N 
ATOM     40  CD  PRO     6      62.411  44.644  51.501  1.00  0.00     0.105 C 
ATOM     41  CA  PRO     6      63.181  44.751  49.211  1.00  0.00     0.163 C 
ATOM     42  CG  PRO     6      62.973  46.035  51.194  1.00  0.00     0.027 C 
ATOM     43  CB  PRO     6      63.944  45.777  50.045  1.00  0.00     0.034 C 
BRANCH  41  44
ATOM     44  C   PRO     6      64.121  43.911  48.336  1.00  0.00     0.251 C 
ATOM     45  N   ARG     7      63.702  43.748  47.084  1.00  0.00    -0.336 N 
ATOM     46  H   ARG     7      63.029  44.362  46.675  1.00 99.99     0.164 HD
ATOM     47  O   PRO     6      65.188  43.478  48.768  1.00  0.00    -0.271 OA
BRANCH  45  48
ATOM     48  CA  ARG     7      64.268  42.736  46.166  1.00  0.00     0.168 C 
BRANCH  48  49
ATOM     49  CB  ARG     7      64.078  41.352  46.798  1.00  0.00     0.035 C 
BRANCH  49  50
ATOM     50  CG  ARG     7      65.253  40.395  46.554  1.00  0.00     0.027 C 
BRANCH  50  51
ATOM     51  CD  ARG     7      66.159  40.231  47.782  1.00  0.00     0.116 C 
BRANCH  51  52
ATOM     52  NE  ARG     7      67.584  40.381  47.415  1.00  0.00    -0.212 N 
ATOM     53  CZ  ARG     7      68.296  41.509  47.414  1.00  0.00     0.666 C 
ATOM     54  NH1 ARG     7      67.769  42.665  47.788  1.00  0.00    -0.235 N 
ATOM     55  NH2 ARG     7      69.559  41.499  47.012  1.00  0.00    -0.235 N 
ATOM     56 2HH1 ARG     7      66.820  42.683  48.095  1.00 99.99     0.174 HD
ATOM     57 1HH1 ARG     7      68.312  43.501  47.784  1.00 99.99     0.174 HD
ATOM     58 1HH2 ARG     7      70.079  42.350  47.014  1.00 99.99     0.174 HD
ATOM     59 2HH2 ARG     7      69.988  40.651  46.707  1.00 99.99     0.174 HD
ATOM     60  HE  ARG     7      68.051  39.527  47.197  1.00 99.99     0.178 HD
ENDBRANCH  51  52
ENDBRANCH  50  51
ENDBRANCH  49  50
ENDBRANCH  48  49
BRANCH  48  61
ATOM     61  C   ARG     7      63.673  42.727  44.751  1.00  0.00     0.206 C 
ATOM     62  O   ARG     7      64.447  42.507  43.794  1.00 99.99    -0.646 OA
ATOM     63  OXT ARG     7      62.442  42.923  44.673  1.00 99.99    -0.646 OA
ENDBRANCH  48  61
ENDBRANCH  45  48
ENDBRANCH  41  44
ENDBRANCH  29  37
ENDBRANCH  27  29
ENDBRANCH  20  25
ENDBRANCH  17  20
ENDBRANCH  15  16
BRANCH  15  64
ATOM     64  CB  GLU     3      55.780  40.757  48.416  1.00  0.00     0.043 C 
BRANCH  64  65
ATOM     65  CG  GLU     3      56.668  39.651  47.821  1.00  0.00     0.100 C 
BRANCH  65  66
ATOM     66  CD  GLU     3      57.714  39.068  48.775  1.00  0.00     0.185 C 
ATOM     67  OE2 GLU     3      58.571  39.871  49.202  1.00  0.00    -0.647 OA
ATOM     68  OE1 GLU     3      57.645  37.857  49.063  1.00  0.00    -0.647 OA
ENDBRANCH  65  66
ENDBRANCH  64  65
ENDBRANCH  15  64
ENDBRANCH  13  15
ENDBRANCH  10  11
BRANCH  10  69
ATOM     69  CB  SER     2      58.821  43.649  44.627  1.00  0.00     0.169 C 
BRANCH  69  70
ATOM     70  OG  SER     2      59.971  44.174  43.946  1.00  0.00    -0.380 OA
ATOM     71  HG  SER     2      60.416  44.850  44.543  1.00 99.99     0.211 HD
ENDBRANCH  69  70
ENDBRANCH  10  69
ENDBRANCH   7  10
ENDBRANCH   5   6
ENDBRANCH   1   5
TORSDOF 27
ENDMDL
MODEL 4
REMARK VINA RESULT:      -4.6      2.688      9.042
REMARK  27 active torsions:
REMARK  status: ('A' for Active; 'I' for Inactive)
REMARK    1  A    between atoms: N_1  and  CA_2 
REMARK    2  A    between atoms: CA_2  and  C_3 
REMARK       I    between atoms: C_3  and  N_8 
REMARK    3  A    between atoms: N_8  and  CA_9 
REMARK    4  A    between atoms: CA_9  and  C_10 
REMARK    5  A    between atoms: CA_9  and  CB_12 
REMARK       I    between atoms: C_10  and  N_16 
REMARK    6  A    between atoms: CB_12  and  OG_13 
REMARK    7  A    between atoms: N_16  and  CA_17 
REMARK    8  A    between atoms: CA_17  and  C_18 
REMARK    9  A    between atoms: CA_17  and  CB_20 
REMARK       I    between atoms: C_18  and  N_26 
REMARK   10  A    between atoms: CB_20  and  CG_21 
REMARK   11  A    between atoms: CG_21  and  CD_22 
REMARK   12  A    between atoms: N_26  and  CA_27 
REMARK   13  A    between atoms: CA_27  and  CB_30 
REMARK   14  A    between atoms: CA_27  and  C_28 
REMARK       I    between atoms: C_28  and  N_35 
REMARK   15  A    between atoms: CB_30  and  CG1_31 
REMARK   16  A    between atoms: N_35  and  CA_36 
REMARK   17  A    between atoms: CA_36  and  CB_39 
REMARK   18  A    between atoms: CA_36  and  C_37 
REMARK       I    between atoms: C_37  and  N_47 
REMARK   19  A    between atoms: CB_39  and  CG_40 
REMARK   20  A    between atoms: CG_40  and  CD_41 
REMARK       I    between atoms: CD_41  and  NE2_43 
REMARK   21  A    between atoms: CA_48  and  C_49 
REMARK       I    between atoms: C_49  and  N_54 
REMARK   22  A    between atoms: N_54  and  CA_55 
REMARK   23  A    between atoms: CA_55  and  CB_58 
REMARK   24  A    between atoms: CA_55  and  C_56 
REMARK   25  A    between atoms: CB_58  and  CG_59 
REMARK   26  A    between atoms: CG_59  and  CD_60 
REMARK   27  A    between atoms: CD_60  and  NE_61 
REMARK       I    between atoms: NE_61  and  CZ_62 
REMARK       I    between atoms: CZ_62  and  NH1_63 
ROOT
ATOM      1  N   GLY     1      63.199  42.322  51.380  1.00  0.00    -0.055 N 
ATOM      2  H1  GLY     1      64.037  42.493  50.860  1.00 99.99     0.276 HD
ATOM      3  H2  GLY     1      63.404  41.823  52.204  1.00 99.99     0.276 HD
ATOM      4  H3  GLY     1      62.613  41.733  50.850  1.00 99.99     0.276 HD
ENDROOT
BRANCH   1   5
ATOM      5  CA  GLY     1      62.541  43.613  51.644  1.00  0.00     0.292 C 
BRANCH   5   6
ATOM      6  C   GLY     1      62.828  44.559  50.464  1.00  0.00     0.261 C 
ATOM      7  N   SER     2      64.106  44.565  50.097  1.00  0.00    -0.335 N 
ATOM      8  H   SER     2      64.791  43.987  50.544  1.00 99.99     0.164 HD
ATOM      9  O   GLY     1      61.917  44.859  49.692  1.00  0.00    -0.270 OA
BRANCH   7  10
ATOM     10  CA  SER     2      64.666  45.332  48.965  1.00  0.00     0.189 C 
BRANCH  10  11
ATOM     11  C   SER     2      64.644  44.619  47.601  1.00  0.00     0.253 C 
ATOM     12  O   SER     2      65.521  44.893  46.788  1.00  0.00    -0.270 OA
ATOM     13  N   GLU     3      63.550  43.916  47.283  1.00  0.00    -0.337 N 
ATOM     14  H   GLU     3      62.843  43.763  47.972  1.00 99.99     0.164 HD
BRANCH  13  15
ATOM     15  CA  GLU     3      63.377  43.142  46.024  1.00  0.00     0.160 C 
BRANCH  15  16
ATOM     16  C   GLU     3      61.920  42.988  45.501  1.00  0.00     0.251 C 
ATOM     17  N   ILE     4      61.771  42.899  44.181  1.00  0.00    -0.338 N 
ATOM     18  H   ILE     4      62.547  43.102  43.583  1.00 99.99     0.164 HD
ATOM     19  O   GLU     3      60.954  43.083  46.257  1.00  0.00    -0.271 OA
BRANCH  17  20
ATOM     20  CA  ILE     4      60.520  42.551  43.460  1.00  0.00     0.159 C 
BRANCH  20  21
ATOM     21  CB  ILE     4      60.728  42.604  41.924  1.00  0.00     0.029 C 
ATOM     22  CG2 ILE     4      61.905  41.706  41.500  1.00  0.00     0.002 C 
BRANCH  21  23
ATOM     23  CG1 ILE     4      59.464  42.174  41.156  1.00  0.00     0.002 C 
ATOM     24  CD  ILE     4      59.066  43.119  40.013  1.00  0.00     0.000 C 
ENDBRANCH  21  23
ENDBRANCH  20  21
BRANCH  20  25
ATOM     25  C   ILE     4      60.028  41.143  43.884  1.00  0.00     0.251 C 
ATOM     26  O   ILE     4      60.528  40.122  43.413  1.00  0.00    -0.271 OA
ATOM     27  N   GLN     5      59.081  41.104  44.819  1.00  0.00    -0.338 N 
ATOM     28  H   GLN     5      58.506  41.899  45.026  1.00 99.99     0.164 HD
BRANCH  27  29
ATOM     29  CA  GLN     5      58.624  39.881  45.509  1.00  0.00     0.160 C 
BRANCH  29  30
ATOM     30  CB  GLN     5      59.469  39.722  46.783  1.00  0.00     0.042 C 
BRANCH  30  31
ATOM     31  CG  GLN     5      58.937  38.677  47.777  1.00  0.00     0.090 C 
BRANCH  31  32
ATOM     32  CD  GLN     5      58.640  39.254  49.166  1.00  0.00     0.227 C 
ATOM     33  NE2 GLN     5      57.376  39.377  49.512  1.00  0.00    -0.369 N 
ATOM     34 2HE2 GLN     5      56.638  39.164  48.879  1.00 99.99     0.159 HD
ATOM     35 1HE2 GLN     5      57.198  39.749  50.419  1.00 99.99     0.159 HD
ATOM     36  OE1 GLN     5      59.526  39.593  49.936  1.00  0.00    -0.273 OA
ENDBRANCH  31  32
ENDBRANCH  30  31
ENDBRANCH  29  30
BRANCH  29  37
ATOM     37  C   GLN     5      57.127  39.982  45.877  1.00  0.00     0.254 C 
ATOM     38  O   GLN     5      56.747  40.911  46.594  1.00  0.00    -0.270 OA
ATOM     39  N   PRO     6      56.268  39.096  45.339  1.00  0.00    -0.312 N 
ATOM     40  CD  PRO     6      56.517  38.246  44.156  1.00  0.00     0.105 C 
ATOM     41  CA  PRO     6      54.846  38.997  45.734  1.00  0.00     0.163 C 
ATOM     42  CG  PRO     6      55.131  37.748  43.738  1.00  0.00     0.027 C 
ATOM     43  CB  PRO     6      54.355  37.722  45.053  1.00  0.00     0.034 C 
BRANCH  41  44
ATOM     44  C   PRO     6      54.677  38.933  47.259  1.00  0.00     0.251 C 
ATOM     45  N   ARG     7      53.912  39.897  47.764  1.00  0.00    -0.336 N 
ATOM     46  H   ARG     7      53.267  40.403  47.195  1.00 99.99     0.164 HD
ATOM     47  O   PRO     6      55.178  38.030  47.924  1.00  0.00    -0.271 OA
BRANCH  45  48
ATOM     48  CA  ARG     7      53.865  40.220  49.206  1.00  0.00     0.168 C 
BRANCH  48  49
ATOM     49  CB  ARG     7      53.917  41.746  49.359  1.00  0.00     0.035 C 
BRANCH  49  50
ATOM     50  CG  ARG     7      55.148  42.248  50.126  1.00  0.00     0.027 C 
BRANCH  50  51
ATOM     51  CD  ARG     7      56.051  43.159  49.282  1.00  0.00     0.116 C 
BRANCH  51  52
ATOM     52  NE  ARG     7      57.479  42.852  49.513  1.00  0.00    -0.212 N 
ATOM     53  CZ  ARG     7      58.475  42.969  48.632  1.00  0.00     0.666 C 
ATOM     54  NH1 ARG     7      58.270  43.422  47.405  1.00  0.00    -0.235 N 
ATOM     55  NH2 ARG     7      59.706  42.609  48.967  1.00  0.00    -0.235 N 
ATOM     56 2HH1 ARG     7      57.347  43.699  47.143  1.00 99.99     0.174 HD
ATOM     57 1HH1 ARG     7      59.023  43.506  46.757  1.00 99.99     0.174 HD
ATOM     58 1HH2 ARG     7      60.441  42.699  48.299  1.00 99.99     0.174 HD
ATOM     59 2HH2 ARG     7      59.899  42.248  49.878  1.00 99.99     0.174 HD
ATOM     60  HE  ARG     7      57.703  42.578  50.445  1.00 99.99     0.178 HD
ENDBRANCH  51  52
ENDBRANCH  50  51
ENDBRANCH  49  50
ENDBRANCH  48  49
BRANCH  48  61
ATOM     61  C   ARG     7      52.642  39.682  49.962  1.00  0.00     0.206 C 
ATOM     62  O   ARG     7      52.685  38.504  50.376  1.00 99.99    -0.646 OA
ATOM     63  OXT ARG     7      51.699  40.485  50.120  1.00 99.99    -0.646 OA
ENDBRANCH  48  61
ENDBRANCH  45  48
ENDBRANCH  41  44
ENDBRANCH  29  37
ENDBRANCH  27  29
ENDBRANCH  20  25
ENDBRANCH  17  20
ENDBRANCH  15  16
BRANCH  15  64
ATOM     64  CB  GLU     3      64.037  41.749  46.137  1.00  0.00     0.043 C 
BRANCH  64  65
ATOM     65  CG  GLU     3      64.236  41.136  47.533  1.00  0.00     0.100 C 
BRANCH  65  66
ATOM     66  CD  GLU     3      62.976  40.546  48.173  1.00  0.00     0.185 C 
ATOM     67  OE2 GLU     3      62.247  41.354  48.788  1.00  0.00    -0.647 OA
ATOM     68  OE1 GLU     3      62.759  39.326  48.042  1.00  0.00    -0.647 OA
ENDBRANCH  65  66
ENDBRANCH  64  65
ENDBRANCH  15  64
ENDBRANCH  13  15
ENDBRANCH  10  11
BRANCH  10  69
ATOM     69  CB  SER     2      66.091  45.763  49.331  1.00  0.00     0.169 C 
BRANCH  69  70
ATOM     70  OG  SER     2      66.040  46.598  50.498  1.00  0.00    -0.380 OA
ATOM     71  HG  SER     2      66.123  46.015  51.314  1.00 99.99     0.211 HD
ENDBRANCH  69  70
ENDBRANCH  10  69
ENDBRANCH   7  10
ENDBRANCH   5   6
ENDBRANCH   1   5
TORSDOF 27
ENDMDL
MODEL 5
REMARK VINA RESULT:      -4.5      2.292      8.388
REMARK  27 active torsions:
REMARK  status: ('A' for Active; 'I' for Inactive)
REMARK    1  A    between atoms: N_1  and  CA_2 
REMARK    2  A    between atoms: CA_2  and  C_3 
REMARK       I    between atoms: C_3  and  N_8 
REMARK    3  A    between atoms: N_8  and  CA_9 
REMARK    4  A    between atoms: CA_9  and  C_10 
REMARK    5  A    between atoms: CA_9  and  CB_12 
REMARK       I    between atoms: C_10  and  N_16 
REMARK    6  A    between atoms: CB_12  and  OG_13 
REMARK    7  A    between atoms: N_16  and  CA_17 
REMARK    8  A    between atoms: CA_17  and  C_18 
REMARK    9  A    between atoms: CA_17  and  CB_20 
REMARK       I    between atoms: C_18  and  N_26 
REMARK   10  A    between atoms: CB_20  and  CG_21 
REMARK   11  A    between atoms: CG_21  and  CD_22 
REMARK   12  A    between atoms: N_26  and  CA_27 
REMARK   13  A    between atoms: CA_27  and  CB_30 
REMARK   14  A    between atoms: CA_27  and  C_28 
REMARK       I    between atoms: C_28  and  N_35 
REMARK   15  A    between atoms: CB_30  and  CG1_31 
REMARK   16  A    between atoms: N_35  and  CA_36 
REMARK   17  A    between atoms: CA_36  and  CB_39 
REMARK   18  A    between atoms: CA_36  and  C_37 
REMARK       I    between atoms: C_37  and  N_47 
REMARK   19  A    between atoms: CB_39  and  CG_40 
REMARK   20  A    between atoms: CG_40  and  CD_41 
REMARK       I    between atoms: CD_41  and  NE2_43 
REMARK   21  A    between atoms: CA_48  and  C_49 
REMARK       I    between atoms: C_49  and  N_54 
REMARK   22  A    between atoms: N_54  and  CA_55 
REMARK   23  A    between atoms: CA_55  and  CB_58 
REMARK   24  A    between atoms: CA_55  and  C_56 
REMARK   25  A    between atoms: CB_58  and  CG_59 
REMARK   26  A    between atoms: CG_59  and  CD_60 
REMARK   27  A    between atoms: CD_60  and  NE_61 
REMARK       I    between atoms: NE_61  and  CZ_62 
REMARK       I    between atoms: CZ_62  and  NH1_63 
ROOT
ATOM      1  N   GLY     1      63.514  41.035  51.903  1.00  0.00    -0.055 N 
ATOM      2  H1  GLY     1      63.122  40.836  51.004  1.00 99.99     0.276 HD
ATOM      3  H2  GLY     1      64.363  41.524  51.805  1.00 99.99     0.276 HD
ATOM      4  H3  GLY     1      63.746  40.183  52.341  1.00 99.99     0.276 HD
ENDROOT
BRANCH   1   5
ATOM      5  CA  GLY     1      62.517  41.775  52.696  1.00  0.00     0.292 C 
BRANCH   5   6
ATOM      6  C   GLY     1      62.260  43.131  52.015  1.00  0.00     0.261 C 
ATOM      7  N   SER     2      63.076  43.366  50.992  1.00  0.00    -0.335 N 
ATOM      8  H   SER     2      63.766  42.703  50.698  1.00 99.99     0.164 HD
ATOM      9  O   GLY     1      61.151  43.658  52.110  1.00  0.00    -0.270 OA
BRANCH   7  10
ATOM     10  CA  SER     2      63.031  44.558  50.118  1.00  0.00     0.189 C 
BRANCH  10  11
ATOM     11  C   SER     2      63.664  44.387  48.725  1.00  0.00     0.253 C 
ATOM     12  O   SER     2      64.514  45.198  48.371  1.00  0.00    -0.270 OA
ATOM     13  N   GLU     3      63.098  43.512  47.887  1.00  0.00    -0.337 N 
ATOM     14  H   GLU     3      62.375  42.906  48.217  1.00 99.99     0.164 HD
BRANCH  13  15
ATOM     15  CA  GLU     3      63.599  43.201  46.520  1.00  0.00     0.160 C 
BRANCH  15  16
ATOM     16  C   GLU     3      62.534  42.758  45.475  1.00  0.00     0.251 C 
ATOM     17  N   ILE     4      61.478  42.102  45.950  1.00  0.00    -0.338 N 
ATOM     18  H   ILE     4      61.487  41.773  46.895  1.00 99.99     0.164 HD
ATOM     19  O   GLU     3      62.728  42.888  44.268  1.00  0.00    -0.271 OA
BRANCH  17  20
ATOM     20  CA  ILE     4      60.247  41.755  45.195  1.00  0.00     0.159 C 
BRANCH  20  21
ATOM     21  CB  ILE     4      60.294  40.287  44.695  1.00  0.00     0.029 C 
ATOM     22  CG2 ILE     4      60.611  40.233  43.189  1.00  0.00     0.002 C 
BRANCH  21  23
ATOM     23  CG1 ILE     4      61.337  39.451  45.460  1.00  0.00     0.002 C 
ATOM     24  CD  ILE     4      62.484  38.920  44.588  1.00  0.00     0.000 C 
ENDBRANCH  21  23
ENDBRANCH  20  21
BRANCH  20  25
ATOM     25  C   ILE     4      58.991  41.980  46.077  1.00  0.00     0.251 C 
ATOM     26  O   ILE     4      58.056  42.679  45.690  1.00  0.00    -0.271 OA
ATOM     27  N   GLN     5      58.961  41.331  47.239  1.00  0.00    -0.338 N 
ATOM     28  H   GLN     5      59.793  40.969  47.667  1.00 99.99     0.164 HD
BRANCH  27  29
ATOM     29  CA  GLN     5      57.784  41.240  48.125  1.00  0.00     0.160 C 
BRANCH  29  30
ATOM     30  CB  GLN     5      57.321  39.774  48.134  1.00  0.00     0.042 C 
BRANCH  30  31
ATOM     31  CG  GLN     5      56.655  39.306  46.830  1.00  0.00     0.090 C 
BRANCH  31  32
ATOM     32  CD  GLN     5      55.590  40.277  46.307  1.00  0.00     0.227 C 
ATOM     33  NE2 GLN     5      55.706  40.690  45.064  1.00  0.00    -0.369 N 
ATOM     34 2HE2 GLN     5      56.487  40.435  44.499  1.00 99.99     0.159 HD
ATOM     35 1HE2 GLN     5      55.005  41.316  44.736  1.00 99.99     0.159 HD
ATOM     36  OE1 GLN     5      54.662  40.664  47.001  1.00  0.00    -0.273 OA
ENDBRANCH  31  32
ENDBRANCH  30  31
ENDBRANCH  29  30
BRANCH  29  37
ATOM     37  C   GLN     5      58.137  41.692  49.560  1.00  0.00     0.254 C 
ATOM     38  O   GLN     5      59.302  41.587  49.952  1.00  0.00    -0.270 OA
ATOM     39  N   PRO     6      57.177  42.261  50.314  1.00  0.00    -0.312 N 
ATOM     40  CD  PRO     6      55.908  42.835  49.822  1.00  0.00     0.105 C 
ATOM     41  CA  PRO     6      57.354  42.591  51.745  1.00  0.00     0.163 C 
ATOM     42  CG  PRO     6      55.390  43.683  50.987  1.00  0.00     0.027 C 
ATOM     43  CB  PRO     6      55.953  42.975  52.216  1.00  0.00     0.034 C 
BRANCH  41  44
ATOM     44  C   PRO     6      57.921  41.407  52.541  1.00  0.00     0.251 C 
ATOM     45  N   ARG     7      57.322  40.246  52.293  1.00  0.00    -0.336 N 
ATOM     46  H   ARG     7      56.791  40.100  51.460  1.00 99.99     0.164 HD
ATOM     47  O   PRO     6      58.879  41.541  53.299  1.00  0.00    -0.271 OA
BRANCH  45  48
ATOM     48  CA  ARG     7      57.479  39.053  53.153  1.00  0.00     0.168 C 
BRANCH  48  49
ATOM     49  CB  ARG     7      56.083  38.514  53.490  1.00  0.00     0.035 C 
BRANCH  49  50
ATOM     50  CG  ARG     7      54.952  39.515  53.215  1.00  0.00     0.027 C 
BRANCH  50  51
ATOM     51  CD  ARG     7      54.020  39.071  52.078  1.00  0.00     0.116 C 
BRANCH  51  52
ATOM     52  NE  ARG     7      53.525  40.235  51.313  1.00  0.00    -0.212 N 
ATOM     53  CZ  ARG     7      53.155  40.252  50.030  1.00  0.00     0.666 C 
ATOM     54  NH1 ARG     7      53.175  39.158  49.286  1.00  0.00    -0.235 N 
ATOM     55  NH2 ARG     7      52.775  41.388  49.462  1.00  0.00    -0.235 N 
ATOM     56 2HH1 ARG     7      53.457  38.297  49.705  1.00 99.99     0.174 HD
ATOM     57 1HH1 ARG     7      52.896  39.183  48.329  1.00 99.99     0.174 HD
ATOM     58 1HH2 ARG     7      52.504  41.387  48.502  1.00 99.99     0.174 HD
ATOM     59 2HH2 ARG     7      52.761  42.238  49.985  1.00 99.99     0.174 HD
ATOM     60  HE  ARG     7      53.418  41.072  51.846  1.00 99.99     0.178 HD
ENDBRANCH  51  52
ENDBRANCH  50  51
ENDBRANCH  49  50
ENDBRANCH  48  49
BRANCH  48  61
ATOM     61  C   ARG     7      58.324  37.919  52.558  1.00  0.00     0.206 C 
ATOM     62  O   ARG     7      58.246  36.791  53.091  1.00 99.99    -0.646 OA
ATOM     63  OXT ARG     7      59.016  38.216  51.561  1.00 99.99    -0.646 OA
ENDBRANCH  48  61
ENDBRANCH  45  48
ENDBRANCH  41  44
ENDBRANCH  29  37
ENDBRANCH  27  29
ENDBRANCH  20  25
ENDBRANCH  17  20
ENDBRANCH  15  16
BRANCH  15  64
ATOM     64  CB  GLU     3      64.737  42.157  46.573  1.00  0.00     0.043 C 
BRANCH  64  65
ATOM     65  CG  GLU     3      64.961  41.373  47.877  1.00  0.00     0.100 C 
BRANCH  65  66
ATOM     66  CD  GLU     3      63.853  40.381  48.242  1.00  0.00     0.185 C 
ATOM     67  OE2 GLU     3      64.069  39.187  47.942  1.00  0.00    -0.647 OA
ATOM     68  OE1 GLU     3      62.829  40.816  48.805  1.00  0.00    -0.647 OA
ENDBRANCH  65  66
ENDBRANCH  64  65
ENDBRANCH  15  64
ENDBRANCH  13  15
ENDBRANCH  10  11
BRANCH  10  69
ATOM     69  CB  SER     2      63.672  45.731  50.868  1.00  0.00     0.169 C 
BRANCH  69  70
ATOM     70  OG  SER     2      63.389  46.948  50.159  1.00  0.00    -0.380 OA
ATOM     71  HG  SER     2      64.248  47.457  50.038  1.00 99.99     0.211 HD
ENDBRANCH  69  70
ENDBRANCH  10  69
ENDBRANCH   7  10
ENDBRANCH   5   6
ENDBRANCH   1   5
TORSDOF 27
ENDMDL
MODEL 6
REMARK VINA RESULT:      -4.5      2.239      3.976
REMARK  27 active torsions:
REMARK  status: ('A' for Active; 'I' for Inactive)
REMARK    1  A    between atoms: N_1  and  CA_2 
REMARK    2  A    between atoms: CA_2  and  C_3 
REMARK       I    between atoms: C_3  and  N_8 
REMARK    3  A    between atoms: N_8  and  CA_9 
REMARK    4  A    between atoms: CA_9  and  C_10 
REMARK    5  A    between atoms: CA_9  and  CB_12 
REMARK       I    between atoms: C_10  and  N_16 
REMARK    6  A    between atoms: CB_12  and  OG_13 
REMARK    7  A    between atoms: N_16  and  CA_17 
REMARK    8  A    between atoms: CA_17  and  C_18 
REMARK    9  A    between atoms: CA_17  and  CB_20 
REMARK       I    between atoms: C_18  and  N_26 
REMARK   10  A    between atoms: CB_20  and  CG_21 
REMARK   11  A    between atoms: CG_21  and  CD_22 
REMARK   12  A    between atoms: N_26  and  CA_27 
REMARK   13  A    between atoms: CA_27  and  CB_30 
REMARK   14  A    between atoms: CA_27  and  C_28 
REMARK       I    between atoms: C_28  and  N_35 
REMARK   15  A    between atoms: CB_30  and  CG1_31 
REMARK   16  A    between atoms: N_35  and  CA_36 
REMARK   17  A    between atoms: CA_36  and  CB_39 
REMARK   18  A    between atoms: CA_36  and  C_37 
REMARK       I    between atoms: C_37  and  N_47 
REMARK   19  A    between atoms: CB_39  and  CG_40 
REMARK   20  A    between atoms: CG_40  and  CD_41 
REMARK       I    between atoms: CD_41  and  NE2_43 
REMARK   21  A    between atoms: CA_48  and  C_49 
REMARK       I    between atoms: C_49  and  N_54 
REMARK   22  A    between atoms: N_54  and  CA_55 
REMARK   23  A    between atoms: CA_55  and  CB_58 
REMARK   24  A    between atoms: CA_55  and  C_56 
REMARK   25  A    between atoms: CB_58  and  CG_59 
REMARK   26  A    between atoms: CG_59  and  CD_60 
REMARK   27  A    between atoms: CD_60  and  NE_61 
REMARK       I    between atoms: NE_61  and  CZ_62 
REMARK       I    between atoms: CZ_62  and  NH1_63 
ROOT
ATOM      1  N   GLY     1      51.894  40.844  49.831  1.00  0.00    -0.055 N 
ATOM      2  H1  GLY     1      52.711  41.305  50.182  1.00 99.99     0.276 HD
ATOM      3  H2  GLY     1      51.278  41.499  49.430  1.00 99.99     0.276 HD
ATOM      4  H3  GLY     1      51.406  40.447  50.589  1.00 99.99     0.276 HD
ENDROOT
BRANCH   1   5
ATOM      5  CA  GLY     1      52.319  39.803  48.879  1.00  0.00     0.292 C 
BRANCH   5   6
ATOM      6  C   GLY     1      53.684  40.203  48.292  1.00  0.00     0.261 C 
ATOM      7  N   SER     2      54.083  39.406  47.306  1.00  0.00    -0.335 N 
ATOM      8  H   SER     2      53.526  38.641  46.981  1.00 99.99     0.164 HD
ATOM      9  O   GLY     1      54.073  41.367  48.401  1.00  0.00    -0.270 OA
BRANCH   7  10
ATOM     10  CA  SER     2      55.323  39.575  46.520  1.00  0.00     0.189 C 
BRANCH  10  11
ATOM     11  C   SER     2      56.509  40.206  47.273  1.00  0.00     0.253 C 
ATOM     12  O   SER     2      57.073  39.537  48.132  1.00  0.00    -0.270 OA
ATOM     13  N   GLU     3      56.716  41.519  47.119  1.00  0.00    -0.337 N 
ATOM     14  H   GLU     3      56.194  42.026  46.435  1.00 99.99     0.164 HD
BRANCH  13  15
ATOM     15  CA  GLU     3      57.832  42.280  47.746  1.00  0.00     0.160 C 
BRANCH  15  16
ATOM     16  C   GLU     3      57.722  42.534  49.277  1.00  0.00     0.251 C 
ATOM     17  N   ILE     4      58.509  41.797  50.057  1.00  0.00    -0.338 N 
ATOM     18  H   ILE     4      58.995  41.014  49.667  1.00 99.99     0.164 HD
ATOM     19  O   GLU     3      56.857  43.275  49.743  1.00  0.00    -0.271 OA
BRANCH  17  20
ATOM     20  CA  ILE     4      58.730  41.989  51.513  1.00  0.00     0.159 C 
BRANCH  20  21
ATOM     21  CB  ILE     4      58.474  40.674  52.295  1.00  0.00     0.029 C 
ATOM     22  CG2 ILE     4      58.444  40.938  53.813  1.00  0.00     0.002 C 
BRANCH  21  23
ATOM     23  CG1 ILE     4      57.153  40.002  51.875  1.00  0.00     0.002 C 
ATOM     24  CD  ILE     4      55.891  40.772  52.292  1.00  0.00     0.000 C 
ENDBRANCH  21  23
ENDBRANCH  20  21
BRANCH  20  25
ATOM     25  C   ILE     4      60.172  42.495  51.777  1.00  0.00     0.251 C 
ATOM     26  O   ILE     4      60.419  43.266  52.704  1.00  0.00    -0.271 OA
ATOM     27  N   GLN     5      61.125  42.007  50.986  1.00  0.00    -0.338 N 
ATOM     28  H   GLN     5      60.915  41.587  50.099  1.00 99.99     0.164 HD
BRANCH  27  29
ATOM     29  CA  GLN     5      62.574  42.192  51.195  1.00  0.00     0.160 C 
BRANCH  29  30
ATOM     30  CB  GLN     5      63.171  40.823  51.558  1.00  0.00     0.042 C 
BRANCH  30  31
ATOM     31  CG  GLN     5      63.191  40.512  53.063  1.00  0.00     0.090 C 
BRANCH  31  32
ATOM     32  CD  GLN     5      62.566  39.157  53.414  1.00  0.00     0.227 C 
ATOM     33  NE2 GLN     5      63.369  38.221  53.871  1.00  0.00    -0.369 N 
ATOM     34 2HE2 GLN     5      64.354  38.360  53.931  1.00 99.99     0.159 HD
ATOM     35 1HE2 GLN     5      62.949  37.347  54.099  1.00 99.99     0.159 HD
ATOM     36  OE1 GLN     5      61.373  38.934  53.281  1.00  0.00    -0.273 OA
ENDBRANCH  31  32
ENDBRANCH  30  31
ENDBRANCH  29  30
BRANCH  29  37
ATOM     37  C   GLN     5      63.250  42.743  49.919  1.00  0.00     0.254 C 
ATOM     38  O   GLN     5      63.620  41.951  49.048  1.00  0.00    -0.270 OA
ATOM     39  N   PRO     6      63.344  44.076  49.761  1.00  0.00    -0.312 N 
ATOM     40  CD  PRO     6      62.566  45.098  50.490  1.00  0.00     0.105 C 
ATOM     41  CA  PRO     6      64.102  44.714  48.663  1.00  0.00     0.163 C 
ATOM     42  CG  PRO     6      62.752  46.381  49.676  1.00  0.00     0.027 C 
ATOM     43  CB  PRO     6      64.125  46.195  49.035  1.00  0.00     0.034 C 
BRANCH  41  44
ATOM     44  C   PRO     6      65.518  44.135  48.530  1.00  0.00     0.251 C 
ATOM     45  N   ARG     7      65.703  43.389  47.445  1.00  0.00    -0.336 N 
ATOM     46  H   ARG     7      65.099  43.462  46.653  1.00 99.99     0.164 HD
ATOM     47  O   PRO     6      66.398  44.395  49.347  1.00  0.00    -0.271 OA
BRANCH  45  48
ATOM     48  CA  ARG     7      66.861  42.487  47.270  1.00  0.00     0.168 C 
BRANCH  48  49
ATOM     49  CB  ARG     7      66.447  41.347  46.332  1.00  0.00     0.035 C 
BRANCH  49  50
ATOM     50  CG  ARG     7      64.995  41.446  45.843  1.00  0.00     0.027 C 
BRANCH  50  51
ATOM     51  CD  ARG     7      64.883  41.574  44.317  1.00  0.00     0.116 C 
BRANCH  51  52
ATOM     52  NE  ARG     7      63.583  41.059  43.835  1.00  0.00    -0.212 N 
ATOM     53  CZ  ARG     7      62.546  41.780  43.402  1.00  0.00     0.666 C 
ATOM     54  NH1 ARG     7      62.597  43.101  43.335  1.00  0.00    -0.235 N 
ATOM     55  NH2 ARG     7      61.421  41.179  43.045  1.00  0.00    -0.235 N 
ATOM     56 2HH1 ARG     7      63.441  43.563  43.600  1.00 99.99     0.174 HD
ATOM     57 1HH1 ARG     7      61.817  43.628  43.010  1.00 99.99     0.174 HD
ATOM     58 1HH2 ARG     7      60.653  41.729  42.725  1.00 99.99     0.174 HD
ATOM     59 2HH2 ARG     7      61.337  40.185  43.095  1.00 99.99     0.174 HD
ATOM     60  HE  ARG     7      63.517  40.064  43.793  1.00 99.99     0.178 HD
ENDBRANCH  51  52
ENDBRANCH  50  51
ENDBRANCH  49  50
ENDBRANCH  48  49
BRANCH  48  61
ATOM     61  C   ARG     7      68.134  43.149  46.724  1.00  0.00     0.206 C 
ATOM     62  O   ARG     7      69.228  42.810  47.223  1.00 99.99    -0.646 OA
ATOM     63  OXT ARG     7      67.970  43.969  45.796  1.00 99.99    -0.646 OA
ENDBRANCH  48  61
ENDBRANCH  45  48
ENDBRANCH  41  44
ENDBRANCH  29  37
ENDBRANCH  27  29
ENDBRANCH  20  25
ENDBRANCH  17  20
ENDBRANCH  15  16
BRANCH  15  64
ATOM     64  CB  GLU     3      58.066  43.620  47.014  1.00  0.00     0.043 C 
BRANCH  64  65
ATOM     65  CG  GLU     3      58.125  43.623  45.477  1.00  0.00     0.100 C 
BRANCH  65  66
ATOM     66  CD  GLU     3      59.534  43.571  44.877  1.00  0.00     0.185 C 
ATOM     67  OE2 GLU     3      59.635  43.949  43.690  1.00  0.00    -0.647 OA
ATOM     68  OE1 GLU     3      60.470  43.167  45.594  1.00  0.00    -0.647 OA
ENDBRANCH  65  66
ENDBRANCH  64  65
ENDBRANCH  15  64
ENDBRANCH  13  15
ENDBRANCH  10  11
BRANCH  10  69
ATOM     69  CB  SER     2      54.991  40.377  45.257  1.00  0.00     0.169 C 
BRANCH  69  70
ATOM     70  OG  SER     2      56.164  40.459  44.434  1.00  0.00    -0.380 OA
ATOM     71  HG  SER     2      55.916  40.896  43.562  1.00 99.99     0.211 HD
ENDBRANCH  69  70
ENDBRANCH  10  69
ENDBRANCH   7  10
ENDBRANCH   5   6
ENDBRANCH   1   5
TORSDOF 27
ENDMDL
MODEL 7
REMARK VINA RESULT:      -4.5      4.010      7.450
REMARK  27 active torsions:
REMARK  status: ('A' for Active; 'I' for Inactive)
REMARK    1  A    between atoms: N_1  and  CA_2 
REMARK    2  A    between atoms: CA_2  and  C_3 
REMARK       I    between atoms: C_3  and  N_8 
REMARK    3  A    between atoms: N_8  and  CA_9 
REMARK    4  A    between atoms: CA_9  and  C_10 
REMARK    5  A    between atoms: CA_9  and  CB_12 
REMARK       I    between atoms: C_10  and  N_16 
REMARK    6  A    between atoms: CB_12  and  OG_13 
REMARK    7  A    between atoms: N_16  and  CA_17 
REMARK    8  A    between atoms: CA_17  and  C_18 
REMARK    9  A    between atoms: CA_17  and  CB_20 
REMARK       I    between atoms: C_18  and  N_26 
REMARK   10  A    between atoms: CB_20  and  CG_21 
REMARK   11  A    between atoms: CG_21  and  CD_22 
REMARK   12  A    between atoms: N_26  and  CA_27 
REMARK   13  A    between atoms: CA_27  and  CB_30 
REMARK   14  A    between atoms: CA_27  and  C_28 
REMARK       I    between atoms: C_28  and  N_35 
REMARK   15  A    between atoms: CB_30  and  CG1_31 
REMARK   16  A    between atoms: N_35  and  CA_36 
REMARK   17  A    between atoms: CA_36  and  CB_39 
REMARK   18  A    between atoms: CA_36  and  C_37 
REMARK       I    between atoms: C_37  and  N_47 
REMARK   19  A    between atoms: CB_39  and  CG_40 
REMARK   20  A    between atoms: CG_40  and  CD_41 
REMARK       I    between atoms: CD_41  and  NE2_43 
REMARK   21  A    between atoms: CA_48  and  C_49 
REMARK       I    between atoms: C_49  and  N_54 
REMARK   22  A    between atoms: N_54  and  CA_55 
REMARK   23  A    between atoms: CA_55  and  CB_58 
REMARK   24  A    between atoms: CA_55  and  C_56 
REMARK   25  A    between atoms: CB_58  and  CG_59 
REMARK   26  A    between atoms: CG_59  and  CD_60 
REMARK   27  A    between atoms: CD_60  and  NE_61 
REMARK       I    between atoms: NE_61  and  CZ_62 
REMARK       I    between atoms: CZ_62  and  NH1_63 
ROOT
ATOM      1  N   GLY     1      64.750  40.819  56.511  1.00  0.00    -0.055 N 
ATOM      2  H1  GLY     1      65.389  40.550  57.233  1.00 99.99     0.276 HD
ATOM      3  H2  GLY     1      64.538  40.047  55.938  1.00 99.99     0.276 HD
ATOM      4  H3  GLY     1      65.195  41.473  55.925  1.00 99.99     0.276 HD
ENDROOT
BRANCH   1   5
ATOM      5  CA  GLY     1      63.555  41.408  57.140  1.00  0.00     0.292 C 
BRANCH   5   6
ATOM      6  C   GLY     1      62.718  40.275  57.758  1.00  0.00     0.261 C 
ATOM      7  N   SER     2      61.456  40.623  57.989  1.00  0.00    -0.335 N 
ATOM      8  H   SER     2      61.102  41.530  57.755  1.00 99.99     0.164 HD
ATOM      9  O   GLY     1      63.060  39.104  57.587  1.00  0.00    -0.270 OA
BRANCH   7  10
ATOM     10  CA  SER     2      60.407  39.731  58.526  1.00  0.00     0.189 C 
BRANCH  10  11
ATOM     11  C   SER     2      59.416  39.169  57.491  1.00  0.00     0.253 C 
ATOM     12  O   SER     2      59.501  37.983  57.190  1.00  0.00    -0.270 OA
ATOM     13  N   GLU     3      58.669  40.043  56.805  1.00  0.00    -0.337 N 
ATOM     14  H   GLU     3      58.674  41.008  57.064  1.00 99.99     0.164 HD
BRANCH  13  15
ATOM     15  CA  GLU     3      57.642  39.670  55.794  1.00  0.00     0.160 C 
BRANCH  15  16
ATOM     16  C   GLU     3      58.103  39.669  54.308  1.00  0.00     0.251 C 
ATOM     17  N   ILE     4      57.656  40.667  53.550  1.00  0.00    -0.338 N 
ATOM     18  H   ILE     4      56.929  41.261  53.896  1.00 99.99     0.164 HD
ATOM     19  O   GLU     3      58.730  38.723  53.832  1.00  0.00    -0.271 OA
BRANCH  17  20
ATOM     20  CA  ILE     4      58.107  40.994  52.173  1.00  0.00     0.159 C 
BRANCH  20  21
ATOM     21  CB  ILE     4      56.944  41.573  51.327  1.00  0.00     0.029 C 
ATOM     22  CG2 ILE     4      56.180  40.447  50.605  1.00  0.00     0.002 C 
BRANCH  21  23
ATOM     23  CG1 ILE     4      55.954  42.383  52.185  1.00  0.00     0.002 C 
ATOM     24  CD  ILE     4      55.447  43.671  51.519  1.00  0.00     0.000 C 
ENDBRANCH  21  23
ENDBRANCH  20  21
BRANCH  20  25
ATOM     25  C   ILE     4      59.288  41.999  52.217  1.00  0.00     0.251 C 
ATOM     26  O   ILE     4      59.276  42.966  52.977  1.00  0.00    -0.271 OA
ATOM     27  N   GLN     5      60.329  41.723  51.434  1.00  0.00    -0.338 N 
ATOM     28  H   GLN     5      60.254  41.099  50.652  1.00 99.99     0.164 HD
BRANCH  27  29
ATOM     29  CA  GLN     5      61.628  42.424  51.477  1.00  0.00     0.160 C 
BRANCH  29  30
ATOM     30  CB  GLN     5      62.698  41.397  51.881  1.00  0.00     0.042 C 
BRANCH  30  31
ATOM     31  CG  GLN     5      62.919  41.266  53.396  1.00  0.00     0.090 C 
BRANCH  31  32
ATOM     32  CD  GLN     5      61.890  40.362  54.086  1.00  0.00     0.227 C 
ATOM     33  NE2 GLN     5      61.901  39.085  53.772  1.00  0.00    -0.369 N 
ATOM     34 2HE2 GLN     5      62.507  38.725  53.069  1.00 99.99     0.159 HD
ATOM     35 1HE2 GLN     5      61.230  38.509  54.231  1.00 99.99     0.159 HD
ATOM     36  OE1 GLN     5      61.084  40.791  54.898  1.00  0.00    -0.273 OA
ENDBRANCH  31  32
ENDBRANCH  30  31
ENDBRANCH  29  30
BRANCH  29  37
ATOM     37  C   GLN     5      61.972  43.033  50.099  1.00  0.00     0.254 C 
ATOM     38  O   GLN     5      61.555  42.478  49.078  1.00  0.00    -0.270 OA
ATOM     39  N   PRO     6      62.650  44.195  50.056  1.00  0.00    -0.312 N 
ATOM     40  CD  PRO     6      62.808  45.154  51.168  1.00  0.00     0.105 C 
ATOM     41  CA  PRO     6      63.168  44.790  48.805  1.00  0.00     0.163 C 
ATOM     42  CG  PRO     6      63.296  46.443  50.501  1.00  0.00     0.027 C 
ATOM     43  CB  PRO     6      64.056  45.940  49.276  1.00  0.00     0.034 C 
BRANCH  41  44
ATOM     44  C   PRO     6      63.949  43.770  47.964  1.00  0.00     0.251 C 
ATOM     45  N   ARG     7      64.966  43.201  48.604  1.00  0.00    -0.336 N 
ATOM     46  H   ARG     7      65.018  43.195  49.601  1.00 99.99     0.164 HD
ATOM     47  O   PRO     6      63.611  43.488  46.817  1.00  0.00    -0.271 OA
BRANCH  45  48
ATOM     48  CA  ARG     7      66.033  42.442  47.916  1.00  0.00     0.168 C 
BRANCH  48  49
ATOM     49  CB  ARG     7      67.271  43.341  47.805  1.00  0.00     0.035 C 
BRANCH  49  50
ATOM     50  CG  ARG     7      67.400  44.050  46.450  1.00  0.00     0.027 C 
BRANCH  50  51
ATOM     51  CD  ARG     7      68.566  43.519  45.603  1.00  0.00     0.116 C 
BRANCH  51  52
ATOM     52  NE  ARG     7      68.086  42.582  44.565  1.00  0.00    -0.212 N 
ATOM     53  CZ  ARG     7      68.089  41.249  44.627  1.00  0.00     0.666 C 
ATOM     54  NH1 ARG     7      68.524  40.603  45.698  1.00  0.00    -0.235 N 
ATOM     55  NH2 ARG     7      67.668  40.533  43.594  1.00  0.00    -0.235 N 
ATOM     56 2HH1 ARG     7      68.841  41.132  46.482  1.00 99.99     0.174 HD
ATOM     57 1HH1 ARG     7      68.521  39.606  45.732  1.00 99.99     0.174 HD
ATOM     58 1HH2 ARG     7      67.678  39.538  43.652  1.00 99.99     0.174 HD
ATOM     59 2HH2 ARG     7      67.346  40.982  42.762  1.00 99.99     0.174 HD
ATOM     60  HE  ARG     7      67.676  43.017  43.767  1.00 99.99     0.178 HD
ENDBRANCH  51  52
ENDBRANCH  50  51
ENDBRANCH  49  50
ENDBRANCH  48  49
BRANCH  48  61
ATOM     61  C   ARG     7      66.433  41.119  48.583  1.00  0.00     0.206 C 
ATOM     62  O   ARG     7      67.651  40.844  48.649  1.00 99.99    -0.646 OA
ATOM     63  OXT ARG     7      65.496  40.424  49.028  1.00 99.99    -0.646 OA
ENDBRANCH  48  61
ENDBRANCH  45  48
ENDBRANCH  41  44
ENDBRANCH  29  37
ENDBRANCH  27  29
ENDBRANCH  20  25
ENDBRANCH  17  20
ENDBRANCH  15  16
BRANCH  15  64
ATOM     64  CB  GLU     3      56.377  40.544  55.944  1.00  0.00     0.043 C 
BRANCH  64  65
ATOM     65  CG  GLU     3      55.455  40.311  57.152  1.00  0.00     0.100 C 
BRANCH  65  66
ATOM     66  CD  GLU     3      55.646  41.285  58.318  1.00  0.00     0.185 C 
ATOM     67  OE2 GLU     3      54.828  42.228  58.381  1.00  0.00    -0.647 OA
ATOM     68  OE1 GLU     3      56.581  41.078  59.117  1.00  0.00    -0.647 OA
ENDBRANCH  65  66
ENDBRANCH  64  65
ENDBRANCH  15  64
ENDBRANCH  13  15
ENDBRANCH  10  11
BRANCH  10  69
ATOM     69  CB  SER     2      59.666  40.473  59.644  1.00  0.00     0.169 C 
BRANCH  69  70
ATOM     70  OG  SER     2      59.316  41.786  59.179  1.00  0.00    -0.380 OA
ATOM     71  HG  SER     2      59.828  41.974  58.334  1.00 99.99     0.211 HD
ENDBRANCH  69  70
ENDBRANCH  10  69
ENDBRANCH   7  10
ENDBRANCH   5   6
ENDBRANCH   1   5
TORSDOF 27
ENDMDL
MODEL 8
REMARK VINA RESULT:      -4.4      2.254      5.871
REMARK  27 active torsions:
REMARK  status: ('A' for Active; 'I' for Inactive)
REMARK    1  A    between atoms: N_1  and  CA_2 
REMARK    2  A    between atoms: CA_2  and  C_3 
REMARK       I    between atoms: C_3  and  N_8 
REMARK    3  A    between atoms: N_8  and  CA_9 
REMARK    4  A    between atoms: CA_9  and  C_10 
REMARK    5  A    between atoms: CA_9  and  CB_12 
REMARK       I    between atoms: C_10  and  N_16 
REMARK    6  A    between atoms: CB_12  and  OG_13 
REMARK    7  A    between atoms: N_16  and  CA_17 
REMARK    8  A    between atoms: CA_17  and  C_18 
REMARK    9  A    between atoms: CA_17  and  CB_20 
REMARK       I    between atoms: C_18  and  N_26 
REMARK   10  A    between atoms: CB_20  and  CG_21 
REMARK   11  A    between atoms: CG_21  and  CD_22 
REMARK   12  A    between atoms: N_26  and  CA_27 
REMARK   13  A    between atoms: CA_27  and  CB_30 
REMARK   14  A    between atoms: CA_27  and  C_28 
REMARK       I    between atoms: C_28  and  N_35 
REMARK   15  A    between atoms: CB_30  and  CG1_31 
REMARK   16  A    between atoms: N_35  and  CA_36 
REMARK   17  A    between atoms: CA_36  and  CB_39 
REMARK   18  A    between atoms: CA_36  and  C_37 
REMARK       I    between atoms: C_37  and  N_47 
REMARK   19  A    between atoms: CB_39  and  CG_40 
REMARK   20  A    between atoms: CG_40  and  CD_41 
REMARK       I    between atoms: CD_41  and  NE2_43 
REMARK   21  A    between atoms: CA_48  and  C_49 
REMARK       I    between atoms: C_49  and  N_54 
REMARK   22  A    between atoms: N_54  and  CA_55 
REMARK   23  A    between atoms: CA_55  and  CB_58 
REMARK   24  A    between atoms: CA_55  and  C_56 
REMARK   25  A    between atoms: CB_58  and  CG_59 
REMARK   26  A    between atoms: CG_59  and  CD_60 
REMARK   27  A    between atoms: CD_60  and  NE_61 
REMARK       I    between atoms: NE_61  and  CZ_62 
REMARK       I    between atoms: CZ_62  and  NH1_63 
ROOT
ATOM      1  N   GLY     1      63.909  45.037  49.076  1.00  0.00    -0.055 N 
ATOM      2  H1  GLY     1      63.002  44.759  48.756  1.00 99.99     0.276 HD
ATOM      3  H2  GLY     1      64.262  45.764  48.515  1.00 99.99     0.276 HD
ATOM      4  H3  GLY     1      64.530  44.281  48.958  1.00 99.99     0.276 HD
ENDROOT
BRANCH   1   5
ATOM      5  CA  GLY     1      63.808  45.411  50.498  1.00  0.00     0.292 C 
BRANCH   5   6
ATOM      6  C   GLY     1      62.813  44.459  51.185  1.00  0.00     0.261 C 
ATOM      7  N   SER     2      63.118  43.175  51.019  1.00  0.00    -0.335 N 
ATOM      8  H   SER     2      63.930  42.882  50.512  1.00 99.99     0.164 HD
ATOM      9  O   GLY     1      62.148  44.862  52.140  1.00  0.00    -0.270 OA
BRANCH   7  10
ATOM     10  CA  SER     2      62.378  42.038  51.605  1.00  0.00     0.189 C 
BRANCH  10  11
ATOM     11  C   SER     2      60.890  41.942  51.221  1.00  0.00     0.253 C 
ATOM     12  O   SER     2      60.504  42.564  50.237  1.00  0.00    -0.270 OA
ATOM     13  N   GLU     3      60.055  41.379  52.101  1.00  0.00    -0.337 N 
ATOM     14  H   GLU     3      60.422  40.925  52.912  1.00 99.99     0.164 HD
BRANCH  13  15
ATOM     15  CA  GLU     3      58.597  41.177  51.876  1.00  0.00     0.160 C 
BRANCH  15  16
ATOM     16  C   GLU     3      58.198  40.383  50.599  1.00  0.00     0.251 C 
ATOM     17  N   ILE     4      58.145  41.077  49.464  1.00  0.00    -0.338 N 
ATOM     18  H   ILE     4      58.189  42.076  49.495  1.00 99.99     0.164 HD
ATOM     19  O   GLU     3      57.819  39.214  50.663  1.00  0.00    -0.271 OA
BRANCH  17  20
ATOM     20  CA  ILE     4      57.987  40.515  48.098  1.00  0.00     0.159 C 
BRANCH  20  21
ATOM     21  CB  ILE     4      57.176  41.475  47.190  1.00  0.00     0.029 C 
ATOM     22  CG2 ILE     4      55.799  40.873  46.850  1.00  0.00     0.002 C 
BRANCH  21  23
ATOM     23  CG1 ILE     4      56.974  42.855  47.844  1.00  0.00     0.002 C 
ATOM     24  CD  ILE     4      57.803  43.982  47.209  1.00  0.00     0.000 C 
ENDBRANCH  21  23
ENDBRANCH  20  21
BRANCH  20  25
ATOM     25  C   ILE     4      59.375  40.229  47.469  1.00  0.00     0.251 C 
ATOM     26  O   ILE     4      59.636  39.137  46.964  1.00  0.00    -0.271 OA
ATOM     27  N   GLN     5      60.239  41.242  47.455  1.00  0.00    -0.338 N 
ATOM     28  H   GLN     5      60.137  42.034  48.062  1.00 99.99     0.164 HD
BRANCH  27  29
ATOM     29  CA  GLN     5      61.522  41.248  46.725  1.00  0.00     0.160 C 
BRANCH  29  30
ATOM     30  CB  GLN     5      61.469  42.391  45.699  1.00  0.00     0.042 C 
BRANCH  30  31
ATOM     31  CG  GLN     5      60.213  42.397  44.813  1.00  0.00     0.090 C 
BRANCH  31  32
ATOM     32  CD  GLN     5      60.525  42.455  43.313  1.00  0.00     0.227 C 
ATOM     33  NE2 GLN     5      60.948  43.601  42.828  1.00  0.00    -0.369 N 
ATOM     34 2HE2 GLN     5      61.007  44.419  43.393  1.00 99.99     0.159 HD
ATOM     35 1HE2 GLN     5      61.151  43.623  41.853  1.00 99.99     0.159 HD
ATOM     36  OE1 GLN     5      60.391  41.486  42.581  1.00  0.00    -0.273 OA
ENDBRANCH  31  32
ENDBRANCH  30  31
ENDBRANCH  29  30
BRANCH  29  37
ATOM     37  C   GLN     5      62.706  41.463  47.695  1.00  0.00     0.254 C 
ATOM     38  O   GLN     5      62.868  42.574  48.207  1.00  0.00    -0.270 OA
ATOM     39  N   PRO     6      63.481  40.409  48.013  1.00  0.00    -0.312 N 
ATOM     40  CD  PRO     6      63.135  38.985  47.829  1.00  0.00     0.105 C 
ATOM     41  CA  PRO     6      64.727  40.523  48.803  1.00  0.00     0.163 C 
ATOM     42  CG  PRO     6      64.145  38.226  48.695  1.00  0.00     0.027 C 
ATOM     43  CB  PRO     6      65.367  39.141  48.694  1.00  0.00     0.034 C 
BRANCH  41  44
ATOM     44  C   PRO     6      65.649  41.625  48.265  1.00  0.00     0.251 C 
ATOM     45  N   ARG     7      65.548  41.830  46.955  1.00  0.00    -0.336 N 
ATOM     46  H   ARG     7      64.745  41.533  46.440  1.00 99.99     0.164 HD
ATOM     47  O   PRO     6      66.374  42.280  49.011  1.00  0.00    -0.271 OA
BRANCH  45  48
ATOM     48  CA  ARG     7      66.541  42.601  46.176  1.00  0.00     0.168 C 
BRANCH  48  49
ATOM     49  CB  ARG     7      66.380  42.238  44.695  1.00  0.00     0.035 C 
BRANCH  49  50
ATOM     50  CG  ARG     7      64.923  42.007  44.271  1.00  0.00     0.027 C 
BRANCH  50  51
ATOM     51  CD  ARG     7      64.743  40.764  43.388  1.00  0.00     0.116 C 
BRANCH  51  52
ATOM     52  NE  ARG     7      63.588  40.921  42.478  1.00  0.00    -0.212 N 
ATOM     53  CZ  ARG     7      63.627  41.195  41.173  1.00  0.00     0.666 C 
ATOM     54  NH1 ARG     7      64.774  41.334  40.526  1.00  0.00    -0.235 N 
ATOM     55  NH2 ARG     7      62.502  41.355  40.491  1.00  0.00    -0.235 N 
ATOM     56 2HH1 ARG     7      65.627  41.213  41.029  1.00 99.99     0.174 HD
ATOM     57 1HH1 ARG     7      64.791  41.538  39.550  1.00 99.99     0.174 HD
ATOM     58 1HH2 ARG     7      62.546  41.561  39.516  1.00 99.99     0.174 HD
ATOM     59 2HH2 ARG     7      61.617  41.272  40.946  1.00 99.99     0.174 HD
ATOM     60  HE  ARG     7      62.699  40.750  42.898  1.00 99.99     0.178 HD
ENDBRANCH  51  52
ENDBRANCH  50  51
ENDBRANCH  49  50
ENDBRANCH  48  49
BRANCH  48  61
ATOM     61  C   ARG     7      66.457  44.126  46.330  1.00  0.00     0.206 C 
ATOM     62  O   ARG     7      65.322  44.646  46.376  1.00 99.99    -0.646 OA
ATOM     63  OXT ARG     7      67.548  44.728  46.419  1.00 99.99    -0.646 OA
ENDBRANCH  48  61
ENDBRANCH  45  48
ENDBRANCH  41  44
ENDBRANCH  29  37
ENDBRANCH  27  29
ENDBRANCH  20  25
ENDBRANCH  17  20
ENDBRANCH  15  16
BRANCH  15  64
ATOM     64  CB  GLU     3      57.842  42.525  51.905  1.00  0.00     0.043 C 
BRANCH  64  65
ATOM     65  CG  GLU     3      56.370  42.539  52.349  1.00  0.00     0.100 C 
BRANCH  65  66
ATOM     66  CD  GLU     3      55.391  43.161  51.348  1.00  0.00     0.185 C 
ATOM     67  OE2 GLU     3      54.991  42.406  50.436  1.00  0.00    -0.647 OA
ATOM     68  OE1 GLU     3      55.061  44.353  51.504  1.00  0.00    -0.647 OA
ENDBRANCH  65  66
ENDBRANCH  64  65
ENDBRANCH  15  64
ENDBRANCH  13  15
ENDBRANCH  10  11
BRANCH  10  69
ATOM     69  CB  SER     2      62.545  42.086  53.128  1.00  0.00     0.169 C 
BRANCH  69  70
ATOM     70  OG  SER     2      63.656  41.256  53.502  1.00  0.00    -0.380 OA
ATOM     71  HG  SER     2      63.421  40.768  54.350  1.00 99.99     0.211 HD
ENDBRANCH  69  70
ENDBRANCH  10  69
ENDBRANCH   7  10
ENDBRANCH   5   6
ENDBRANCH   1   5
TORSDOF 27
ENDMDL
MODEL 9
REMARK VINA RESULT:      -4.4      2.610      5.551
REMARK  27 active torsions:
REMARK  status: ('A' for Active; 'I' for Inactive)
REMARK    1  A    between atoms: N_1  and  CA_2 
REMARK    2  A    between atoms: CA_2  and  C_3 
REMARK       I    between atoms: C_3  and  N_8 
REMARK    3  A    between atoms: N_8  and  CA_9 
REMARK    4  A    between atoms: CA_9  and  C_10 
REMARK    5  A    between atoms: CA_9  and  CB_12 
REMARK       I    between atoms: C_10  and  N_16 
REMARK    6  A    between atoms: CB_12  and  OG_13 
REMARK    7  A    between atoms: N_16  and  CA_17 
REMARK    8  A    between atoms: CA_17  and  C_18 
REMARK    9  A    between atoms: CA_17  and  CB_20 
REMARK       I    between atoms: C_18  and  N_26 
REMARK   10  A    between atoms: CB_20  and  CG_21 
REMARK   11  A    between atoms: CG_21  and  CD_22 
REMARK   12  A    between atoms: N_26  and  CA_27 
REMARK   13  A    between atoms: CA_27  and  CB_30 
REMARK   14  A    between atoms: CA_27  and  C_28 
REMARK       I    between atoms: C_28  and  N_35 
REMARK   15  A    between atoms: CB_30  and  CG1_31 
REMARK   16  A    between atoms: N_35  and  CA_36 
REMARK   17  A    between atoms: CA_36  and  CB_39 
REMARK   18  A    between atoms: CA_36  and  C_37 
REMARK       I    between atoms: C_37  and  N_47 
REMARK   19  A    between atoms: CB_39  and  CG_40 
REMARK   20  A    between atoms: CG_40  and  CD_41 
REMARK       I    between atoms: CD_41  and  NE2_43 
REMARK   21  A    between atoms: CA_48  and  C_49 
REMARK       I    between atoms: C_49  and  N_54 
REMARK   22  A    between atoms: N_54  and  CA_55 
REMARK   23  A    between atoms: CA_55  and  CB_58 
REMARK   24  A    between atoms: CA_55  and  C_56 
REMARK   25  A    between atoms: CB_58  and  CG_59 
REMARK   26  A    between atoms: CG_59  and  CD_60 
REMARK   27  A    between atoms: CD_60  and  NE_61 
REMARK       I    between atoms: NE_61  and  CZ_62 
REMARK       I    between atoms: CZ_62  and  NH1_63 
ROOT
ATOM      1  N   GLY     1      59.226  41.353  54.189  1.00  0.00    -0.055 N 
ATOM      2  H1  GLY     1      58.827  40.443  54.065  1.00 99.99     0.276 HD
ATOM      3  H2  GLY     1      60.159  41.363  53.877  1.00 99.99     0.276 HD
ATOM      4  H3  GLY     1      59.265  41.550  55.154  1.00 99.99     0.276 HD
ENDROOT
BRANCH   1   5
ATOM      5  CA  GLY     1      58.379  42.334  53.489  1.00  0.00     0.292 C 
BRANCH   5   6
ATOM      6  C   GLY     1      57.414  41.575  52.562  1.00  0.00     0.261 C 
ATOM      7  N   SER     2      56.926  42.330  51.582  1.00  0.00    -0.335 N 
ATOM      8  H   SER     2      57.192  43.288  51.467  1.00 99.99     0.164 HD
ATOM      9  O   GLY     1      57.496  40.349  52.473  1.00  0.00    -0.270 OA
BRANCH   7  10
ATOM     10  CA  SER     2      56.020  41.862  50.512  1.00  0.00     0.189 C 
BRANCH  10  11
ATOM     11  C   SER     2      56.708  41.267  49.270  1.00  0.00     0.253 C 
ATOM     12  O   SER     2      56.584  41.855  48.200  1.00  0.00    -0.270 OA
ATOM     13  N   GLU     3      57.209  40.030  49.367  1.00  0.00    -0.337 N 
ATOM     14  H   GLU     3      57.243  39.579  50.257  1.00 99.99     0.164 HD
BRANCH  13  15
ATOM     15  CA  GLU     3      57.932  39.321  48.276  1.00  0.00     0.160 C 
BRANCH  15  16
ATOM     16  C   GLU     3      59.116  40.087  47.618  1.00  0.00     0.251 C 
ATOM     17  N   ILE     4      58.808  40.890  46.602  1.00  0.00    -0.338 N 
ATOM     18  H   ILE     4      57.895  40.844  46.197  1.00 99.99     0.164 HD
ATOM     19  O   GLU     3      60.282  39.855  47.932  1.00  0.00    -0.271 OA
BRANCH  17  20
ATOM     20  CA  ILE     4      59.717  41.866  45.949  1.00  0.00     0.159 C 
BRANCH  20  21
ATOM     21  CB  ILE     4      58.937  42.797  44.984  1.00  0.00     0.029 C 
ATOM     22  CG2 ILE     4      59.907  43.602  44.099  1.00  0.00     0.002 C 
BRANCH  21  23
ATOM     23  CG1 ILE     4      57.967  42.010  44.083  1.00  0.00     0.002 C 
ATOM     24  CD  ILE     4      58.636  41.328  42.880  1.00  0.00     0.000 C 
ENDBRANCH  21  23
ENDBRANCH  20  21
BRANCH  20  25
ATOM     25  C   ILE     4      60.463  42.708  47.018  1.00  0.00     0.251 C 
ATOM     26  O   ILE     4      59.876  43.562  47.681  1.00  0.00    -0.271 OA
ATOM     27  N   GLN     5      61.747  42.414  47.212  1.00  0.00    -0.338 N 
ATOM     28  H   GLN     5      62.285  41.912  46.531  1.00 99.99     0.164 HD
BRANCH  27  29
ATOM     29  CA  GLN     5      62.577  42.943  48.313  1.00  0.00     0.160 C 
BRANCH  29  30
ATOM     30  CB  GLN     5      62.921  41.768  49.242  1.00  0.00     0.042 C 
BRANCH  30  31
ATOM     31  CG  GLN     5      62.663  42.036  50.733  1.00  0.00     0.090 C 
BRANCH  31  32
ATOM     32  CD  GLN     5      61.266  42.599  51.019  1.00  0.00     0.227 C 
ATOM     33  NE2 GLN     5      60.243  41.990  50.458  1.00  0.00    -0.369 N 
ATOM     34 2HE2 GLN     5      60.369  41.234  49.823  1.00 99.99     0.159 HD
ATOM     35 1HE2 GLN     5      59.341  42.364  50.656  1.00 99.99     0.159 HD
ATOM     36  OE1 GLN     5      61.088  43.572  51.735  1.00  0.00    -0.273 OA
ENDBRANCH  31  32
ENDBRANCH  30  31
ENDBRANCH  29  30
BRANCH  29  37
ATOM     37  C   GLN     5      63.873  43.583  47.767  1.00  0.00     0.254 C 
ATOM     38  O   GLN     5      64.374  43.134  46.733  1.00  0.00    -0.270 OA
ATOM     39  N   PRO     6      64.374  44.664  48.394  1.00  0.00    -0.312 N 
ATOM     40  CD  PRO     6      63.649  45.540  49.337  1.00  0.00     0.105 C 
ATOM     41  CA  PRO     6      65.684  45.265  48.059  1.00  0.00     0.163 C 
ATOM     42  CG  PRO     6      64.512  46.801  49.435  1.00  0.00     0.027 C 
ATOM     43  CB  PRO     6      65.924  46.283  49.171  1.00  0.00     0.034 C 
BRANCH  41  44
ATOM     44  C   PRO     6      66.799  44.212  47.996  1.00  0.00     0.251 C 
ATOM     45  N   ARG     7      67.344  44.067  46.792  1.00  0.00    -0.336 N 
ATOM     46  H   ARG     7      67.265  44.776  46.094  1.00 99.99     0.164 HD
ATOM     47  O   PRO     6      67.169  43.606  48.999  1.00  0.00    -0.271 OA
BRANCH  45  48
ATOM     48  CA  ARG     7      68.197  42.916  46.423  1.00  0.00     0.168 C 
BRANCH  48  49
ATOM     49  CB  ARG     7      67.802  42.455  45.014  1.00  0.00     0.035 C 
BRANCH  49  50
ATOM     50  CG  ARG     7      67.981  40.948  44.785  1.00  0.00     0.027 C 
BRANCH  50  51
ATOM     51  CD  ARG     7      66.649  40.187  44.723  1.00  0.00     0.116 C 
BRANCH  51  52
ATOM     52  NE  ARG     7      65.506  41.123  44.639  1.00  0.00    -0.212 N 
ATOM     53  CZ  ARG     7      64.275  40.846  44.205  1.00  0.00     0.666 C 
ATOM     54  NH1 ARG     7      63.934  39.629  43.811  1.00  0.00    -0.235 N 
ATOM     55  NH2 ARG     7      63.361  41.803  44.140  1.00  0.00    -0.235 N 
ATOM     56 2HH1 ARG     7      64.614  38.900  43.859  1.00 99.99     0.174 HD
ATOM     57 1HH1 ARG     7      63.010  39.434  43.490  1.00 99.99     0.174 HD
ATOM     58 1HH2 ARG     7      62.445  41.583  43.812  1.00 99.99     0.174 HD
ATOM     59 2HH2 ARG     7      63.583  42.737  44.414  1.00 99.99     0.174 HD
ATOM     60  HE  ARG     7      65.687  42.037  44.995  1.00 99.99     0.178 HD
ENDBRANCH  51  52
ENDBRANCH  50  51
ENDBRANCH  49  50
ENDBRANCH  48  49
BRANCH  48  61
ATOM     61  C   ARG     7      69.709  43.180  46.458  1.00  0.00     0.206 C 
ATOM     62  O   ARG     7      70.387  42.572  47.314  1.00 99.99    -0.646 OA
ATOM     63  OXT ARG     7      70.146  43.978  45.603  1.00 99.99    -0.646 OA
ENDBRANCH  48  61
ENDBRANCH  45  48
ENDBRANCH  41  44
ENDBRANCH  29  37
ENDBRANCH  27  29
ENDBRANCH  20  25
ENDBRANCH  17  20
ENDBRANCH  15  16
BRANCH  15  64
ATOM     64  CB  GLU     3      56.950  38.846  47.182  1.00  0.00     0.043 C 
BRANCH  64  65
ATOM     65  CG  GLU     3      55.596  38.256  47.608  1.00  0.00     0.100 C 
BRANCH  65  66
ATOM     66  CD  GLU     3      54.366  38.930  46.992  1.00  0.00     0.185 C 
ATOM     67  OE2 GLU     3      53.917  38.402  45.953  1.00  0.00    -0.647 OA
ATOM     68  OE1 GLU     3      53.898  39.939  47.556  1.00  0.00    -0.647 OA
ENDBRANCH  65  66
ENDBRANCH  64  65
ENDBRANCH  15  64
ENDBRANCH  13  15
ENDBRANCH  10  11
BRANCH  10  69
ATOM     69  CB  SER     2      55.095  43.020  50.121  1.00  0.00     0.169 C 
BRANCH  69  70
ATOM     70  OG  SER     2      53.996  42.500  49.356  1.00  0.00    -0.380 OA
ATOM     71  HG  SER     2      53.144  42.912  49.698  1.00 99.99     0.211 HD
ENDBRANCH  69  70
ENDBRANCH  10  69
ENDBRANCH   7  10
ENDBRANCH   5   6
ENDBRANCH   1   5
TORSDOF 27
ENDMDL
