MODEL 1
REMARK VINA RESULT:      -5.2      0.000      0.000
REMARK WARNING: 32 MAX_TORS EXCEEDED!!!
REMARK  41 active torsions:
REMARK  status: ('A' for Active; 'I' for Inactive)
REMARK    1  A    between atoms: N_1  and  CA_2 
REMARK    2  A    between atoms: CA_2  and  CB_5 
REMARK    3  A    between atoms: CA_2  and  C_3 
REMARK       I    between atoms: C_3  and  N_15 
REMARK    4  A    between atoms: CB_5  and  CG_6 
REMARK    5  A    between atoms: N_15  and  CA_16 
REMARK    6  A    between atoms: CA_16  and  CB_19 
REMARK    7  A    between atoms: CA_16  and  C_17 
REMARK       I    between atoms: C_17  and  N_28 
REMARK    8  A    between atoms: CB_19  and  CG_20 
REMARK    9  A    between atoms: CG_20  and  CD_21 
REMARK   10  A    between atoms: CD_21  and  CE_22 
REMARK   11  A    between atoms: CE_22  and  NZ_23 
REMARK   12  A    between atoms: N_28  and  CA_29 
REMARK   13  A    between atoms: CA_29  and  C_30 
REMARK   14  A    between atoms: CA_29  and  CB_32 
REMARK       I    between atoms: C_30  and  N_37 
REMARK   15  A    between atoms: CB_32  and  OG1_33 
REMARK   16  A    between atoms: N_37  and  CA_38 
REMARK   17  A    between atoms: CA_38  and  C_39 
REMARK   18  A    between atoms: CA_38  and  CB_41 
REMARK       I    between atoms: C_39  and  N_46 
REMARK   19  A    between atoms: CB_41  and  CG_42 
REMARK   20  A    between atoms: N_46  and  CA_47 
REMARK   21  A    between atoms: CA_47  and  C_48 
REMARK   22  A    between atoms: CA_47  and  CB_50 
REMARK       I    between atoms: C_48  and  N_54 
REMARK   23  A    between atoms: CB_50  and  OG_51 
REMARK   24  A    between atoms: N_54  and  CA_55 
REMARK   25  A    between atoms: CA_55  and  CB_58 
REMARK   26  A    between atoms: CA_55  and  C_56 
REMARK       I    between atoms: C_56  and  N_66 
REMARK   27  A    between atoms: CB_58  and  CG_59 
REMARK   28  A    between atoms: N_66  and  CA_67 
REMARK   29  A    between atoms: CA_67  and  C_68 
REMARK   30  A    between atoms: CA_67  and  CB_70 
REMARK       I    between atoms: C_68  and  N_74 
REMARK   31  A    between atoms: N_74  and  CA_75 
REMARK   32  A    between atoms: CA_75  and  C_76 
REMARK       I    between atoms: C_76  and  N_79 
REMARK   33  A    between atoms: N_79  and  CA_80 
REMARK   34  A    between atoms: CA_80  and  CB_83 
REMARK   35  A    between atoms: CA_80  and  C_81 
REMARK       I    between atoms: C_81  and  N_88 
REMARK   36  A    between atoms: CB_83  and  CG_84 
REMARK   37  A    between atoms: N_88  and  CA_89 
REMARK   38  A    between atoms: CA_89  and  C_90 
REMARK   39  A    between atoms: CA_89  and  CB_92 
REMARK   40  A    between atoms: CB_92  and  CG_93 
REMARK   41  A    between atoms: CG_93  and  SD_94 
ROOT
ATOM      1  N   HIS     1      59.131  43.606  47.448  1.00  0.00    -0.057 N 
ATOM      2  H1  HIS     1      59.538  44.154  46.714  1.00 99.99     0.276 HD
ATOM      3  H2  HIS     1      59.098  44.152  48.266  1.00 99.99     0.276 HD
ATOM      4  H3  HIS     1      59.720  42.847  47.656  1.00 99.99     0.276 HD
ENDROOT
BRANCH   1   5
ATOM      5  CA  HIS     1      57.787  43.190  46.989  1.00  0.00     0.261 C 
BRANCH   5   6
ATOM      6  CB  HIS     1      57.806  41.657  46.808  1.00  0.00     0.087 C 
BRANCH   6   7
ATOM      7  CG  HIS     1      56.798  41.068  45.807  1.00  0.00     0.080 A 
ATOM      8  CD2 HIS     1      57.048  40.638  44.570  1.00  0.00     0.089 A 
ATOM      9  NE2 HIS     1      55.957  40.030  44.103  1.00  0.00    -0.334 N 
ATOM     10  HD1 HIS     1      55.826  39.659  43.185  1.00 99.99     0.168 HD
ATOM     11  CE1 HIS     1      55.029  40.081  45.051  1.00  0.00     0.175 A 
ATOM     12  ND1 HIS     1      55.544  40.736  46.084  1.00  0.00    -0.229 NA
ENDBRANCH   6   7
ENDBRANCH   5   6
BRANCH   5  13
ATOM     13  C   HIS     1      56.750  43.695  48.025  1.00  0.00     0.259 C 
ATOM     14  O   HIS     1      56.430  44.886  48.047  1.00  0.00    -0.271 OA
ATOM     15  N   LYS     2      56.073  42.775  48.709  1.00  0.00    -0.338 N 
ATOM     16  H   LYS     2      56.407  41.837  48.780  1.00 99.99     0.164 HD
BRANCH  15  17
ATOM     17  CA  LYS     2      55.028  43.129  49.691  1.00  0.00     0.159 C 
BRANCH  17  18
ATOM     18  CB  LYS     2      53.902  42.100  49.630  1.00  0.00     0.032 C 
BRANCH  18  19
ATOM     19  CG  LYS     2      54.298  40.643  49.394  1.00  0.00     0.004 C 
BRANCH  19  20
ATOM     20  CD  LYS     2      52.973  39.906  49.214  1.00  0.00     0.032 C 
BRANCH  20  21
ATOM     21  CE  LYS     2      51.816  40.428  50.058  1.00  0.00     0.206 C 
BRANCH  21  22
ATOM     22  NZ  LYS     2      51.932  39.826  51.394  1.00  0.00    -0.064 N 
ATOM     23  HZ1 LYS     2      51.736  40.510  52.097  1.00 99.99     0.275 HD
ATOM     24  HZ2 LYS     2      51.288  39.066  51.475  1.00 99.99     0.275 HD
ATOM     25  HZ3 LYS     2      52.863  39.480  51.515  1.00 99.99     0.275 HD
ENDBRANCH  21  22
ENDBRANCH  20  21
ENDBRANCH  19  20
ENDBRANCH  18  19
ENDBRANCH  17  18
BRANCH  17  26
ATOM     26  C   LYS     2      55.580  43.131  51.128  1.00  0.00     0.251 C 
ATOM     27  O   LYS     2      55.384  44.085  51.883  1.00  0.00    -0.271 OA
ATOM     28  N   THR     3      56.514  42.216  51.377  1.00  0.00    -0.336 N 
ATOM     29  H   THR     3      56.839  41.565  50.688  1.00 99.99     0.164 HD
BRANCH  28  30
ATOM     30  CA  THR     3      57.148  42.064  52.708  1.00  0.00     0.186 C 
BRANCH  30  31
ATOM     31  C   THR     3      58.630  42.460  52.776  1.00  0.00     0.253 C 
ATOM     32  O   THR     3      58.952  43.436  53.450  1.00  0.00    -0.270 OA
ATOM     33  N   ASP     4      59.444  41.855  51.904  1.00  0.00    -0.337 N 
ATOM     34  H   ASP     4      59.089  41.127  51.322  1.00 99.99     0.164 HD
BRANCH  33  35
ATOM     35  CA  ASP     4      60.890  42.143  51.755  1.00  0.00     0.170 C 
BRANCH  35  36
ATOM     36  C   ASP     4      61.248  42.853  50.432  1.00  0.00     0.252 C 
ATOM     37  O   ASP     4      60.960  42.347  49.348  1.00  0.00    -0.271 OA
ATOM     38  N   SER     5      62.135  43.834  50.573  1.00  0.00    -0.336 N 
ATOM     39  H   SER     5      62.401  44.157  51.482  1.00 99.99     0.164 HD
BRANCH  38  40
ATOM     40  CA  SER     5      62.682  44.662  49.482  1.00  0.00     0.189 C 
BRANCH  40  41
ATOM     41  C   SER     5      64.174  44.398  49.244  1.00  0.00     0.254 C 
ATOM     42  O   SER     5      65.010  45.160  49.724  1.00  0.00    -0.270 OA
ATOM     43  N   PHE     6      64.493  43.416  48.397  1.00  0.00    -0.337 N 
ATOM     44  H   PHE     6      63.807  42.926  47.857  1.00 99.99     0.164 HD
BRANCH  43  45
ATOM     45  CA  PHE     6      65.895  43.029  48.139  1.00  0.00     0.164 C 
BRANCH  45  46
ATOM     46  CB  PHE     6      66.132  41.590  48.614  1.00  0.00     0.056 C 
BRANCH  46  47
ATOM     47  CG  PHE     6      64.995  40.654  48.198  1.00  0.00    -0.044 A 
ATOM     48  CD1 PHE     6      63.966  40.348  49.083  1.00  0.00     0.008 A 
ATOM     49  CE1 PHE     6      62.928  39.516  48.683  1.00  0.00     0.001 A 
ATOM     50  CZ  PHE     6      62.916  38.989  47.398  1.00  0.00     0.000 A 
ATOM     51  CE2 PHE     6      63.937  39.304  46.509  1.00  0.00     0.001 A 
ATOM     52  CD2 PHE     6      64.979  40.130  46.911  1.00  0.00     0.008 A 
ENDBRANCH  46  47
ENDBRANCH  45  46
BRANCH  45  53
ATOM     53  C   PHE     6      66.342  43.253  46.680  1.00  0.00     0.251 C 
ATOM     54  O   PHE     6      65.612  43.877  45.913  1.00  0.00    -0.271 OA
ATOM     55  N   VAL     7      67.415  42.575  46.271  1.00  0.00    -0.338 N 
ATOM     56  H   VAL     7      67.961  42.017  46.902  1.00 99.99     0.164 HD
BRANCH  55  57
ATOM     57  CA  VAL     7      67.936  42.615  44.882  1.00  0.00     0.159 C 
BRANCH  57  58
ATOM     58  C   VAL     7      67.200  41.609  43.960  1.00  0.00     0.251 C 
ATOM     59  O   VAL     7      67.520  40.423  43.964  1.00  0.00    -0.271 OA
ATOM     60  N   GLY     8      66.216  42.110  43.195  1.00  0.00    -0.336 N 
ATOM     61  H   GLY     8      65.819  43.024  43.337  1.00 99.99     0.164 HD
BRANCH  60  62
ATOM     62  CA  GLY     8      65.518  41.339  42.139  1.00  0.00     0.189 C 
BRANCH  62  63
ATOM     63  C   GLY     8      64.054  40.954  42.443  1.00  0.00     0.253 C 
ATOM     64  N   LEU     9      63.133  41.888  42.202  1.00  0.00    -0.337 N 
ATOM     65  H   LEU     9      63.406  42.820  41.961  1.00 99.99     0.164 HD
ATOM     66  O   GLY     8      63.808  39.907  43.037  1.00  0.00    -0.270 OA
BRANCH  64  67
ATOM     67  CA  LEU     9      61.678  41.718  42.425  1.00  0.00     0.159 C 
BRANCH  67  68
ATOM     68  CB  LEU     9      61.181  42.761  43.435  1.00  0.00     0.032 C 
BRANCH  68  69
ATOM     69  CG  LEU     9      61.035  42.233  44.866  1.00  0.00     0.002 C 
ATOM     70  CD2 LEU     9      62.265  42.571  45.716  1.00  0.00     0.000 C 
ATOM     71  CD1 LEU     9      60.848  40.715  44.823  1.00  0.00     0.000 C 
ENDBRANCH  68  69
ENDBRANCH  67  68
BRANCH  67  72
ATOM     72  C   LEU     9      60.776  41.781  41.178  1.00  0.00     0.251 C 
ATOM     73  O   LEU     9      60.470  42.867  40.688  1.00  0.00    -0.271 OA
ATOM     74  N   MET    10      60.443  40.616  40.629  1.00  0.00    -0.336 N 
ATOM     75  H   MET    10      60.722  39.750  41.044  1.00 99.99     0.164 HD
BRANCH  74  76
ATOM     76  CA  MET    10      59.649  40.479  39.385  1.00  0.00     0.169 C 
BRANCH  76  77
ATOM     77  C   MET    10      58.247  39.899  39.646  1.00  0.00     0.206 C 
ATOM     78  O   MET    10      57.958  38.804  39.119  1.00 99.99    -0.646 OA
ATOM     79  OXT MET    10      57.510  40.555  40.413  1.00 99.99    -0.646 OA
ENDBRANCH  76  77
BRANCH  76  80
ATOM     80  CB  MET    10      60.391  39.529  38.438  1.00  0.00     0.045 C 
BRANCH  80  81
ATOM     81  CG  MET    10      61.922  39.615  38.481  1.00  0.00     0.060 C 
BRANCH  81  82
ATOM     82  SD  MET    10      62.687  40.793  37.304  1.00  0.00    -0.139 SA
ATOM     83  CE  MET    10      63.790  41.721  38.352  1.00  0.00     0.069 C 
ENDBRANCH  81  82
ENDBRANCH  80  81
ENDBRANCH  76  80
ENDBRANCH  74  76
ENDBRANCH  67  72
ENDBRANCH  64  67
ENDBRANCH  62  63
ENDBRANCH  60  62
ENDBRANCH  57  58
BRANCH  57  84
ATOM     84  CB  VAL     7      69.473  42.439  44.894  1.00  0.00     0.029 C 
ATOM     85  CG2 VAL     7      70.109  43.244  46.034  1.00  0.00     0.002 C 
ATOM     86  CG1 VAL     7      70.147  42.883  43.590  1.00  0.00     0.002 C 
ENDBRANCH  57  84
ENDBRANCH  55  57
ENDBRANCH  45  53
ENDBRANCH  43  45
ENDBRANCH  40  41
BRANCH  40  87
ATOM     87  CB  SER     5      62.490  46.149  49.812  1.00  0.00     0.169 C 
BRANCH  87  88
ATOM     88  OG  SER     5      62.493  46.366  51.226  1.00  0.00    -0.380 OA
ATOM     89  HG  SER     5      62.081  47.254  51.440  1.00 99.99     0.211 HD
ENDBRANCH  87  88
ENDBRANCH  40  87
ENDBRANCH  38  40
ENDBRANCH  35  36
BRANCH  35  90
ATOM     90  CB  ASP     4      61.729  40.866  51.989  1.00  0.00     0.129 C 
BRANCH  90  91
ATOM     91  CG  ASP     4      60.980  39.550  52.262  1.00  0.00     0.188 C 
ATOM     92  OD1 ASP     4      60.557  38.883  51.294  1.00  0.00    -0.647 OA
ATOM     93  OD2 ASP     4      60.714  39.301  53.455  1.00  0.00    -0.647 OA
ENDBRANCH  90  91
ENDBRANCH  35  90
ENDBRANCH  33  35
ENDBRANCH  30  31
BRANCH  30  94
ATOM     94  CB  THR     3      56.954  40.660  53.290  1.00  0.00     0.140 C 
ATOM     95  CG2 THR     3      56.733  39.631  52.179  1.00  0.00     0.034 C 
BRANCH  94  96
ATOM     96  OG1 THR     3      58.067  40.323  54.125  1.00  0.00    -0.382 OA
ATOM     97  HG1 THR     3      58.912  40.411  53.590  1.00 99.99     0.210 HD
ENDBRANCH  94  96
ENDBRANCH  30  94
ENDBRANCH  28  30
ENDBRANCH  17  26
ENDBRANCH  15  17
ENDBRANCH   5  13
ENDBRANCH   1   5
TORSDOF 41
ENDMDL
MODEL 2
REMARK VINA RESULT:      -5.2      2.953      8.675
REMARK WARNING: 32 MAX_TORS EXCEEDED!!!
REMARK  41 active torsions:
REMARK  status: ('A' for Active; 'I' for Inactive)
REMARK    1  A    between atoms: N_1  and  CA_2 
REMARK    2  A    between atoms: CA_2  and  CB_5 
REMARK    3  A    between atoms: CA_2  and  C_3 
REMARK       I    between atoms: C_3  and  N_15 
REMARK    4  A    between atoms: CB_5  and  CG_6 
REMARK    5  A    between atoms: N_15  and  CA_16 
REMARK    6  A    between atoms: CA_16  and  CB_19 
REMARK    7  A    between atoms: CA_16  and  C_17 
REMARK       I    between atoms: C_17  and  N_28 
REMARK    8  A    between atoms: CB_19  and  CG_20 
REMARK    9  A    between atoms: CG_20  and  CD_21 
REMARK   10  A    between atoms: CD_21  and  CE_22 
REMARK   11  A    between atoms: CE_22  and  NZ_23 
REMARK   12  A    between atoms: N_28  and  CA_29 
REMARK   13  A    between atoms: CA_29  and  C_30 
REMARK   14  A    between atoms: CA_29  and  CB_32 
REMARK       I    between atoms: C_30  and  N_37 
REMARK   15  A    between atoms: CB_32  and  OG1_33 
REMARK   16  A    between atoms: N_37  and  CA_38 
REMARK   17  A    between atoms: CA_38  and  C_39 
REMARK   18  A    between atoms: CA_38  and  CB_41 
REMARK       I    between atoms: C_39  and  N_46 
REMARK   19  A    between atoms: CB_41  and  CG_42 
REMARK   20  A    between atoms: N_46  and  CA_47 
REMARK   21  A    between atoms: CA_47  and  C_48 
REMARK   22  A    between atoms: CA_47  and  CB_50 
REMARK       I    between atoms: C_48  and  N_54 
REMARK   23  A    between atoms: CB_50  and  OG_51 
REMARK   24  A    between atoms: N_54  and  CA_55 
REMARK   25  A    between atoms: CA_55  and  CB_58 
REMARK   26  A    between atoms: CA_55  and  C_56 
REMARK       I    between atoms: C_56  and  N_66 
REMARK   27  A    between atoms: CB_58  and  CG_59 
REMARK   28  A    between atoms: N_66  and  CA_67 
REMARK   29  A    between atoms: CA_67  and  C_68 
REMARK   30  A    between atoms: CA_67  and  CB_70 
REMARK       I    between atoms: C_68  and  N_74 
REMARK   31  A    between atoms: N_74  and  CA_75 
REMARK   32  A    between atoms: CA_75  and  C_76 
REMARK       I    between atoms: C_76  and  N_79 
REMARK   33  A    between atoms: N_79  and  CA_80 
REMARK   34  A    between atoms: CA_80  and  CB_83 
REMARK   35  A    between atoms: CA_80  and  C_81 
REMARK       I    between atoms: C_81  and  N_88 
REMARK   36  A    between atoms: CB_83  and  CG_84 
REMARK   37  A    between atoms: N_88  and  CA_89 
REMARK   38  A    between atoms: CA_89  and  C_90 
REMARK   39  A    between atoms: CA_89  and  CB_92 
REMARK   40  A    between atoms: CB_92  and  CG_93 
REMARK   41  A    between atoms: CG_93  and  SD_94 
ROOT
ATOM      1  N   HIS     1      57.753  41.076  42.929  1.00  0.00    -0.057 N 
ATOM      2  H1  HIS     1      57.250  41.927  42.762  1.00 99.99     0.276 HD
ATOM      3  H2  HIS     1      57.166  40.317  42.708  1.00 99.99     0.276 HD
ATOM      4  H3  HIS     1      57.949  40.993  43.888  1.00 99.99     0.276 HD
ENDROOT
BRANCH   1   5
ATOM      5  CA  HIS     1      58.969  41.114  42.087  1.00  0.00     0.261 C 
BRANCH   5   6
ATOM      6  CB  HIS     1      59.221  42.586  41.694  1.00  0.00     0.087 C 
BRANCH   6   7
ATOM      7  CG  HIS     1      59.037  42.944  40.210  1.00  0.00     0.080 A 
ATOM      8  CD2 HIS     1      59.258  44.127  39.633  1.00  0.00     0.089 A 
ATOM      9  NE2 HIS     1      59.166  43.977  38.311  1.00  0.00    -0.334 N 
ATOM     10  HD1 HIS     1      59.225  44.699  37.622  1.00 99.99     0.168 HD
ATOM     11  CE1 HIS     1      58.889  42.703  38.066  1.00  0.00     0.175 A 
ATOM     12  ND1 HIS     1      58.791  42.080  39.235  1.00  0.00    -0.229 NA
ENDBRANCH   6   7
ENDBRANCH   5   6
BRANCH   5  13
ATOM     13  C   HIS     1      60.126  40.464  42.888  1.00  0.00     0.259 C 
ATOM     14  O   HIS     1      61.232  40.315  42.362  1.00  0.00    -0.271 OA
ATOM     15  N   LYS     2      59.944  40.294  44.195  1.00  0.00    -0.338 N 
ATOM     16  H   LYS     2      59.028  40.301  44.593  1.00 99.99     0.164 HD
BRANCH  15  17
ATOM     17  CA  LYS     2      60.988  39.727  45.073  1.00  0.00     0.159 C 
BRANCH  17  18
ATOM     18  CB  LYS     2      61.740  40.859  45.768  1.00  0.00     0.032 C 
BRANCH  18  19
ATOM     19  CG  LYS     2      63.263  40.745  45.839  1.00  0.00     0.004 C 
BRANCH  19  20
ATOM     20  CD  LYS     2      63.777  41.936  45.033  1.00  0.00     0.032 C 
BRANCH  20  21
ATOM     21  CE  LYS     2      62.701  42.855  44.465  1.00  0.00     0.206 C 
BRANCH  21  22
ATOM     22  NZ  LYS     2      62.841  42.852  43.002  1.00  0.00    -0.064 N 
ATOM     23  HZ1 LYS     2      63.508  43.542  42.718  1.00 99.99     0.275 HD
ATOM     24  HZ2 LYS     2      63.140  41.949  42.696  1.00 99.99     0.275 HD
ATOM     25  HZ3 LYS     2      61.953  43.059  42.590  1.00 99.99     0.275 HD
ENDBRANCH  21  22
ENDBRANCH  20  21
ENDBRANCH  19  20
ENDBRANCH  18  19
ENDBRANCH  17  18
BRANCH  17  26
ATOM     26  C   LYS     2      60.381  38.830  46.167  1.00  0.00     0.251 C 
ATOM     27  O   LYS     2      59.623  37.902  45.881  1.00  0.00    -0.271 OA
ATOM     28  N   THR     3      60.473  39.308  47.406  1.00  0.00    -0.336 N 
ATOM     29  H   THR     3      60.908  40.185  47.623  1.00 99.99     0.164 HD
BRANCH  28  30
ATOM     30  CA  THR     3      59.956  38.574  48.584  1.00  0.00     0.186 C 
BRANCH  30  31
ATOM     31  C   THR     3      58.869  39.306  49.386  1.00  0.00     0.253 C 
ATOM     32  O   THR     3      58.649  40.490  49.143  1.00  0.00    -0.270 OA
ATOM     33  N   ASP     4      58.397  38.665  50.461  1.00  0.00    -0.337 N 
ATOM     34  H   ASP     4      58.692  37.730  50.648  1.00 99.99     0.164 HD
BRANCH  33  35
ATOM     35  CA  ASP     4      57.403  39.221  51.409  1.00  0.00     0.170 C 
BRANCH  35  36
ATOM     36  C   ASP     4      57.895  40.476  52.160  1.00  0.00     0.252 C 
ATOM     37  O   ASP     4      57.177  41.469  52.266  1.00  0.00    -0.271 OA
ATOM     38  N   SER     5      59.207  40.494  52.373  1.00  0.00    -0.336 N 
ATOM     39  H   SER     5      59.767  39.682  52.193  1.00 99.99     0.164 HD
BRANCH  38  40
ATOM     40  CA  SER     5      59.957  41.576  53.037  1.00  0.00     0.189 C 
BRANCH  40  41
ATOM     41  C   SER     5      60.707  42.464  52.036  1.00  0.00     0.254 C 
ATOM     42  O   SER     5      61.065  43.590  52.373  1.00  0.00    -0.270 OA
ATOM     43  N   PHE     6      60.813  42.016  50.783  1.00  0.00    -0.337 N 
ATOM     44  H   PHE     6      60.350  41.187  50.466  1.00 99.99     0.164 HD
BRANCH  43  45
ATOM     45  CA  PHE     6      61.568  42.754  49.749  1.00  0.00     0.164 C 
BRANCH  45  46
ATOM     46  CB  PHE     6      62.792  41.937  49.318  1.00  0.00     0.056 C 
BRANCH  46  47
ATOM     47  CG  PHE     6      64.039  42.809  49.165  1.00  0.00    -0.044 A 
ATOM     48  CD1 PHE     6      65.209  42.288  48.620  1.00  0.00     0.008 A 
ATOM     49  CE1 PHE     6      66.326  43.100  48.465  1.00  0.00     0.001 A 
ATOM     50  CZ  PHE     6      66.277  44.432  48.854  1.00  0.00     0.000 A 
ATOM     51  CE2 PHE     6      65.105  44.956  49.387  1.00  0.00     0.001 A 
ATOM     52  CD2 PHE     6      63.989  44.144  49.549  1.00  0.00     0.008 A 
ENDBRANCH  46  47
ENDBRANCH  45  46
BRANCH  45  53
ATOM     53  C   PHE     6      60.704  43.203  48.553  1.00  0.00     0.251 C 
ATOM     54  O   PHE     6      61.242  43.737  47.586  1.00  0.00    -0.271 OA
ATOM     55  N   VAL     7      59.382  43.172  48.723  1.00  0.00    -0.338 N 
ATOM     56  H   VAL     7      58.963  42.790  49.552  1.00 99.99     0.164 HD
BRANCH  55  57
ATOM     57  CA  VAL     7      58.408  43.639  47.706  1.00  0.00     0.159 C 
BRANCH  57  58
ATOM     58  C   VAL     7      56.964  43.689  48.268  1.00  0.00     0.251 C 
ATOM     59  O   VAL     7      56.166  44.522  47.842  1.00  0.00    -0.271 OA
ATOM     60  N   GLY     8      56.659  42.782  49.210  1.00  0.00    -0.336 N 
ATOM     61  H   GLY     8      57.234  41.981  49.410  1.00 99.99     0.164 HD
BRANCH  60  62
ATOM     62  CA  GLY     8      55.390  42.783  49.976  1.00  0.00     0.189 C 
BRANCH  62  63
ATOM     63  C   GLY     8      54.411  41.632  49.660  1.00  0.00     0.253 C 
ATOM     64  N   LEU     9      54.039  40.871  50.690  1.00  0.00    -0.337 N 
ATOM     65  H   LEU     9      54.478  40.974  51.583  1.00 99.99     0.164 HD
ATOM     66  O   GLY     8      54.153  41.353  48.492  1.00  0.00    -0.270 OA
BRANCH  64  67
ATOM     67  CA  LEU     9      53.110  39.720  50.598  1.00  0.00     0.159 C 
BRANCH  67  68
ATOM     68  CB  LEU     9      51.665  40.226  50.498  1.00  0.00     0.032 C 
BRANCH  68  69
ATOM     69  CG  LEU     9      50.718  39.640  51.551  1.00  0.00     0.002 C 
ATOM     70  CD2 LEU     9      51.492  39.082  52.751  1.00  0.00     0.000 C 
ATOM     71  CD1 LEU     9      49.890  38.522  50.914  1.00  0.00     0.000 C 
ENDBRANCH  68  69
ENDBRANCH  67  68
BRANCH  67  72
ATOM     72  C   LEU     9      53.356  38.724  49.450  1.00  0.00     0.251 C 
ATOM     73  O   LEU     9      52.494  38.540  48.592  1.00  0.00    -0.271 OA
ATOM     74  N   MET    10      54.564  38.168  49.396  1.00  0.00    -0.336 N 
ATOM     75  H   MET    10      55.248  38.351  50.102  1.00 99.99     0.164 HD
BRANCH  74  76
ATOM     76  CA  MET    10      55.011  37.249  48.324  1.00  0.00     0.169 C 
BRANCH  76  77
ATOM     77  C   MET    10      55.781  36.035  48.876  1.00  0.00     0.206 C 
ATOM     78  O   MET    10      55.287  34.900  48.704  1.00 99.99    -0.646 OA
ATOM     79  OXT MET    10      56.880  36.277  49.421  1.00 99.99    -0.646 OA
ENDBRANCH  76  77
BRANCH  76  80
ATOM     80  CB  MET    10      55.943  38.018  47.382  1.00  0.00     0.045 C 
BRANCH  80  81
ATOM     81  CG  MET    10      56.373  37.265  46.116  1.00  0.00     0.060 C 
BRANCH  81  82
ATOM     82  SD  MET    10      56.269  38.213  44.551  1.00  0.00    -0.139 SA
ATOM     83  CE  MET    10      55.042  39.448  44.932  1.00  0.00     0.069 C 
ENDBRANCH  81  82
ENDBRANCH  80  81
ENDBRANCH  76  80
ENDBRANCH  74  76
ENDBRANCH  67  72
ENDBRANCH  64  67
ENDBRANCH  62  63
ENDBRANCH  60  62
ENDBRANCH  57  58
BRANCH  57  84
ATOM     84  CB  VAL     7      58.545  42.789  46.421  1.00  0.00     0.029 C 
ATOM     85  CG2 VAL     7      58.608  43.682  45.175  1.00  0.00     0.002 C 
ATOM     86  CG1 VAL     7      57.389  41.802  46.216  1.00  0.00     0.002 C 
ENDBRANCH  57  84
ENDBRANCH  55  57
ENDBRANCH  45  53
ENDBRANCH  43  45
ENDBRANCH  40  41
BRANCH  40  87
ATOM     87  CB  SER     5      60.971  40.977  54.022  1.00  0.00     0.169 C 
BRANCH  87  88
ATOM     88  OG  SER     5      62.091  41.850  54.200  1.00  0.00    -0.380 OA
ATOM     89  HG  SER     5      62.946  41.329  54.162  1.00 99.99     0.211 HD
ENDBRANCH  87  88
ENDBRANCH  40  87
ENDBRANCH  38  40
ENDBRANCH  35  36
BRANCH  35  90
ATOM     90  CB  ASP     4      56.886  38.122  52.366  1.00  0.00     0.129 C 
BRANCH  90  91
ATOM     91  CG  ASP     4      55.405  38.167  52.784  1.00  0.00     0.188 C 
ATOM     92  OD1 ASP     4      55.033  39.038  53.599  1.00  0.00    -0.647 OA
ATOM     93  OD2 ASP     4      54.688  37.227  52.385  1.00  0.00    -0.647 OA
ENDBRANCH  90  91
ENDBRANCH  35  90
ENDBRANCH  33  35
ENDBRANCH  30  31
BRANCH  30  94
ATOM     94  CB  THR     3      61.076  38.112  49.523  1.00  0.00     0.140 C 
ATOM     95  CG2 THR     3      62.401  37.974  48.770  1.00  0.00     0.034 C 
BRANCH  94  96
ATOM     96  OG1 THR     3      61.178  39.007  50.635  1.00  0.00    -0.382 OA
ATOM     97  HG1 THR     3      62.047  39.507  50.570  1.00 99.99     0.210 HD
ENDBRANCH  94  96
ENDBRANCH  30  94
ENDBRANCH  28  30
ENDBRANCH  17  26
ENDBRANCH  15  17
ENDBRANCH   5  13
ENDBRANCH   1   5
TORSDOF 41
ENDMDL
MODEL 3
REMARK VINA RESULT:      -5.0      2.763      7.356
REMARK WARNING: 32 MAX_TORS EXCEEDED!!!
REMARK  41 active torsions:
REMARK  status: ('A' for Active; 'I' for Inactive)
REMARK    1  A    between atoms: N_1  and  CA_2 
REMARK    2  A    between atoms: CA_2  and  CB_5 
REMARK    3  A    between atoms: CA_2  and  C_3 
REMARK       I    between atoms: C_3  and  N_15 
REMARK    4  A    between atoms: CB_5  and  CG_6 
REMARK    5  A    between atoms: N_15  and  CA_16 
REMARK    6  A    between atoms: CA_16  and  CB_19 
REMARK    7  A    between atoms: CA_16  and  C_17 
REMARK       I    between atoms: C_17  and  N_28 
REMARK    8  A    between atoms: CB_19  and  CG_20 
REMARK    9  A    between atoms: CG_20  and  CD_21 
REMARK   10  A    between atoms: CD_21  and  CE_22 
REMARK   11  A    between atoms: CE_22  and  NZ_23 
REMARK   12  A    between atoms: N_28  and  CA_29 
REMARK   13  A    between atoms: CA_29  and  C_30 
REMARK   14  A    between atoms: CA_29  and  CB_32 
REMARK       I    between atoms: C_30  and  N_37 
REMARK   15  A    between atoms: CB_32  and  OG1_33 
REMARK   16  A    between atoms: N_37  and  CA_38 
REMARK   17  A    between atoms: CA_38  and  C_39 
REMARK   18  A    between atoms: CA_38  and  CB_41 
REMARK       I    between atoms: C_39  and  N_46 
REMARK   19  A    between atoms: CB_41  and  CG_42 
REMARK   20  A    between atoms: N_46  and  CA_47 
REMARK   21  A    between atoms: CA_47  and  C_48 
REMARK   22  A    between atoms: CA_47  and  CB_50 
REMARK       I    between atoms: C_48  and  N_54 
REMARK   23  A    between atoms: CB_50  and  OG_51 
REMARK   24  A    between atoms: N_54  and  CA_55 
REMARK   25  A    between atoms: CA_55  and  CB_58 
REMARK   26  A    between atoms: CA_55  and  C_56 
REMARK       I    between atoms: C_56  and  N_66 
REMARK   27  A    between atoms: CB_58  and  CG_59 
REMARK   28  A    between atoms: N_66  and  CA_67 
REMARK   29  A    between atoms: CA_67  and  C_68 
REMARK   30  A    between atoms: CA_67  and  CB_70 
REMARK       I    between atoms: C_68  and  N_74 
REMARK   31  A    between atoms: N_74  and  CA_75 
REMARK   32  A    between atoms: CA_75  and  C_76 
REMARK       I    between atoms: C_76  and  N_79 
REMARK   33  A    between atoms: N_79  and  CA_80 
REMARK   34  A    between atoms: CA_80  and  CB_83 
REMARK   35  A    between atoms: CA_80  and  C_81 
REMARK       I    between atoms: C_81  and  N_88 
REMARK   36  A    between atoms: CB_83  and  CG_84 
REMARK   37  A    between atoms: N_88  and  CA_89 
REMARK   38  A    between atoms: CA_89  and  C_90 
REMARK   39  A    between atoms: CA_89  and  CB_92 
REMARK   40  A    between atoms: CB_92  and  CG_93 
REMARK   41  A    between atoms: CG_93  and  SD_94 
ROOT
ATOM      1  N   HIS     1      63.298  42.351  51.234  1.00  0.00    -0.057 N 
ATOM      2  H1  HIS     1      63.108  41.556  51.816  1.00 99.99     0.276 HD
ATOM      3  H2  HIS     1      63.328  42.053  50.297  1.00 99.99     0.276 HD
ATOM      4  H3  HIS     1      64.195  42.698  51.435  1.00 99.99     0.276 HD
ENDROOT
BRANCH   1   5
ATOM      5  CA  HIS     1      62.223  43.338  51.480  1.00  0.00     0.261 C 
BRANCH   5   6
ATOM      6  CB  HIS     1      61.961  44.087  50.155  1.00  0.00     0.087 C 
BRANCH   6   7
ATOM      7  CG  HIS     1      62.966  45.187  49.775  1.00  0.00     0.080 A 
ATOM      8  CD2 HIS     1      62.703  46.476  49.553  1.00  0.00     0.089 A 
ATOM      9  NE2 HIS     1      63.859  47.131  49.439  1.00  0.00    -0.334 N 
ATOM     10  HD1 HIS     1      63.979  48.097  49.212  1.00 99.99     0.168 HD
ATOM     11  CE1 HIS     1      64.840  46.250  49.591  1.00  0.00     0.175 A 
ATOM     12  ND1 HIS     1      64.285  45.057  49.777  1.00  0.00    -0.229 NA
ENDBRANCH   6   7
ENDBRANCH   5   6
BRANCH   5  13
ATOM     13  C   HIS     1      60.992  42.577  52.035  1.00  0.00     0.259 C 
ATOM     14  O   HIS     1      60.918  42.318  53.239  1.00  0.00    -0.271 OA
ATOM     15  N   LYS     2      59.948  42.430  51.222  1.00  0.00    -0.338 N 
ATOM     16  H   LYS     2      60.047  42.529  50.233  1.00 99.99     0.164 HD
BRANCH  15  17
ATOM     17  CA  LYS     2      58.701  41.764  51.647  1.00  0.00     0.159 C 
BRANCH  17  18
ATOM     18  CB  LYS     2      57.504  42.473  51.020  1.00  0.00     0.032 C 
BRANCH  18  19
ATOM     19  CG  LYS     2      56.347  42.845  51.947  1.00  0.00     0.004 C 
BRANCH  19  20
ATOM     20  CD  LYS     2      55.225  43.284  51.009  1.00  0.00     0.032 C 
BRANCH  20  21
ATOM     21  CE  LYS     2      54.979  42.371  49.813  1.00  0.00     0.206 C 
BRANCH  21  22
ATOM     22  NZ  LYS     2      53.650  41.765  49.981  1.00  0.00    -0.064 N 
ATOM     23  HZ1 LYS     2      53.634  40.853  49.572  1.00 99.99     0.275 HD
ATOM     24  HZ2 LYS     2      53.433  41.701  50.954  1.00 99.99     0.275 HD
ATOM     25  HZ3 LYS     2      52.969  42.344  49.531  1.00 99.99     0.275 HD
ENDBRANCH  21  22
ENDBRANCH  20  21
ENDBRANCH  19  20
ENDBRANCH  18  19
ENDBRANCH  17  18
BRANCH  17  26
ATOM     26  C   LYS     2      58.661  40.294  51.194  1.00  0.00     0.251 C 
ATOM     27  O   LYS     2      59.480  39.475  51.617  1.00  0.00    -0.271 OA
ATOM     28  N   THR     3      57.917  40.054  50.117  1.00  0.00    -0.336 N 
ATOM     29  H   THR     3      57.412  40.770  49.630  1.00 99.99     0.164 HD
BRANCH  28  30
ATOM     30  CA  THR     3      57.753  38.696  49.546  1.00  0.00     0.186 C 
BRANCH  30  31
ATOM     31  C   THR     3      57.631  38.638  48.016  1.00  0.00     0.253 C 
ATOM     32  O   THR     3      58.299  37.811  47.400  1.00  0.00    -0.270 OA
ATOM     33  N   ASP     4      56.982  39.653  47.438  1.00  0.00    -0.337 N 
ATOM     34  H   ASP     4      56.537  40.342  48.005  1.00 99.99     0.164 HD
BRANCH  33  35
ATOM     35  CA  ASP     4      56.815  39.828  45.975  1.00  0.00     0.170 C 
BRANCH  35  36
ATOM     36  C   ASP     4      57.148  41.250  45.477  1.00  0.00     0.252 C 
ATOM     37  O   ASP     4      57.518  41.442  44.320  1.00  0.00    -0.271 OA
ATOM     38  N   SER     5      57.307  42.137  46.456  1.00  0.00    -0.336 N 
ATOM     39  H   SER     5      57.069  41.906  47.401  1.00 99.99     0.164 HD
BRANCH  38  40
ATOM     40  CA  SER     5      57.658  43.558  46.280  1.00  0.00     0.189 C 
BRANCH  40  41
ATOM     41  C   SER     5      58.977  43.742  45.519  1.00  0.00     0.254 C 
ATOM     42  O   SER     5      59.013  44.478  44.536  1.00  0.00    -0.270 OA
ATOM     43  N   PHE     6      60.005  42.974  45.886  1.00  0.00    -0.337 N 
ATOM     44  H   PHE     6      59.916  42.237  46.558  1.00 99.99     0.164 HD
BRANCH  43  45
ATOM     45  CA  PHE     6      61.342  43.108  45.270  1.00  0.00     0.164 C 
BRANCH  45  46
ATOM     46  CB  PHE     6      62.424  42.750  46.295  1.00  0.00     0.056 C 
BRANCH  46  47
ATOM     47  CG  PHE     6      62.221  41.351  46.881  1.00  0.00    -0.044 A 
ATOM     48  CD1 PHE     6      62.714  40.227  46.225  1.00  0.00     0.008 A 
ATOM     49  CE1 PHE     6      62.542  38.966  46.782  1.00  0.00     0.001 A 
ATOM     50  CZ  PHE     6      61.878  38.825  47.993  1.00  0.00     0.000 A 
ATOM     51  CE2 PHE     6      61.396  39.949  48.654  1.00  0.00     0.001 A 
ATOM     52  CD2 PHE     6      61.561  41.210  48.096  1.00  0.00     0.008 A 
ENDBRANCH  46  47
ENDBRANCH  45  46
BRANCH  45  53
ATOM     53  C   PHE     6      61.496  42.327  43.948  1.00  0.00     0.251 C 
ATOM     54  O   PHE     6      62.578  42.333  43.366  1.00  0.00    -0.271 OA
ATOM     55  N   VAL     7      60.379  41.851  43.399  1.00  0.00    -0.338 N 
ATOM     56  H   VAL     7      59.491  41.915  43.864  1.00 99.99     0.164 HD
BRANCH  55  57
ATOM     57  CA  VAL     7      60.337  41.144  42.095  1.00  0.00     0.159 C 
BRANCH  57  58
ATOM     58  C   VAL     7      61.107  39.799  42.143  1.00  0.00     0.251 C 
ATOM     59  O   VAL     7      60.491  38.741  42.252  1.00  0.00    -0.271 OA
ATOM     60  N   GLY     8      62.444  39.873  42.047  1.00  0.00    -0.336 N 
ATOM     61  H   GLY     8      62.930  40.705  41.754  1.00 99.99     0.164 HD
BRANCH  60  62
ATOM     62  CA  GLY     8      63.351  38.716  42.237  1.00  0.00     0.189 C 
BRANCH  62  63
ATOM     63  C   GLY     8      64.662  39.006  42.998  1.00  0.00     0.253 C 
ATOM     64  N   LEU     9      64.956  40.290  43.204  1.00  0.00    -0.337 N 
ATOM     65  H   LEU     9      64.415  41.011  42.772  1.00 99.99     0.164 HD
ATOM     66  O   GLY     8      65.450  38.092  43.226  1.00  0.00    -0.270 OA
BRANCH  64  67
ATOM     67  CA  LEU     9      66.164  40.777  43.911  1.00  0.00     0.159 C 
BRANCH  67  68
ATOM     68  CB  LEU     9      67.143  41.395  42.904  1.00  0.00     0.032 C 
BRANCH  68  69
ATOM     69  CG  LEU     9      68.589  40.909  43.051  1.00  0.00     0.002 C 
ATOM     70  CD2 LEU     9      68.659  39.583  43.816  1.00  0.00     0.000 C 
ATOM     71  CD1 LEU     9      69.401  41.970  43.797  1.00  0.00     0.000 C 
ENDBRANCH  68  69
ENDBRANCH  67  68
BRANCH  67  72
ATOM     72  C   LEU     9      65.937  41.788  45.050  1.00  0.00     0.251 C 
ATOM     73  O   LEU     9      65.466  42.899  44.809  1.00  0.00    -0.271 OA
ATOM     74  N   MET    10      66.185  41.357  46.285  1.00  0.00    -0.336 N 
ATOM     75  H   MET    10      66.552  40.441  46.447  1.00 99.99     0.164 HD
BRANCH  74  76
ATOM     76  CA  MET    10      65.952  42.157  47.509  1.00  0.00     0.169 C 
BRANCH  76  77
ATOM     77  C   MET    10      67.223  42.885  47.984  1.00  0.00     0.206 C 
ATOM     78  O   MET    10      68.250  42.790  47.281  1.00 99.99    -0.646 OA
ATOM     79  OXT MET    10      67.114  43.562  49.029  1.00 99.99    -0.646 OA
ENDBRANCH  76  77
BRANCH  76  80
ATOM     80  CB  MET    10      65.494  41.213  48.627  1.00  0.00     0.045 C 
BRANCH  80  81
ATOM     81  CG  MET    10      66.027  39.778  48.539  1.00  0.00     0.060 C 
BRANCH  81  82
ATOM     82  SD  MET    10      66.105  38.859  50.123  1.00  0.00    -0.139 SA
ATOM     83  CE  MET    10      64.429  38.976  50.716  1.00  0.00     0.069 C 
ENDBRANCH  81  82
ENDBRANCH  80  81
ENDBRANCH  76  80
ENDBRANCH  74  76
ENDBRANCH  67  72
ENDBRANCH  64  67
ENDBRANCH  62  63
ENDBRANCH  60  62
ENDBRANCH  57  58
BRANCH  57  84
ATOM     84  CB  VAL     7      60.812  42.093  40.969  1.00  0.00     0.029 C 
ATOM     85  CG2 VAL     7      59.960  43.368  40.930  1.00  0.00     0.002 C 
ATOM     86  CG1 VAL     7      60.750  41.461  39.574  1.00  0.00     0.002 C 
ENDBRANCH  57  84
ENDBRANCH  55  57
ENDBRANCH  45  53
ENDBRANCH  43  45
ENDBRANCH  40  41
BRANCH  40  87
ATOM     87  CB  SER     5      57.780  44.237  47.651  1.00  0.00     0.169 C 
BRANCH  87  88
ATOM     88  OG  SER     5      56.551  44.867  48.024  1.00  0.00    -0.380 OA
ATOM     89  HG  SER     5      55.971  45.000  47.218  1.00 99.99     0.211 HD
ENDBRANCH  87  88
ENDBRANCH  40  87
ENDBRANCH  38  40
ENDBRANCH  35  36
BRANCH  35  90
ATOM     90  CB  ASP     4      55.414  39.354  45.524  1.00  0.00     0.129 C 
BRANCH  90  91
ATOM     91  CG  ASP     4      54.297  39.298  46.581  1.00  0.00     0.188 C 
ATOM     92  OD1 ASP     4      53.905  40.363  47.104  1.00  0.00    -0.647 OA
ATOM     93  OD2 ASP     4      53.947  38.161  46.958  1.00  0.00    -0.647 OA
ENDBRANCH  90  91
ENDBRANCH  35  90
ENDBRANCH  33  35
ENDBRANCH  30  31
BRANCH  30  94
ATOM     94  CB  THR     3      56.596  37.927  50.192  1.00  0.00     0.140 C 
ATOM     95  CG2 THR     3      55.686  38.868  50.984  1.00  0.00     0.034 C 
BRANCH  94  96
ATOM     96  OG1 THR     3      55.879  37.197  49.191  1.00  0.00    -0.382 OA
ATOM     97  HG1 THR     3      54.993  36.912  49.571  1.00 99.99     0.210 HD
ENDBRANCH  94  96
ENDBRANCH  30  94
ENDBRANCH  28  30
ENDBRANCH  17  26
ENDBRANCH  15  17
ENDBRANCH   5  13
ENDBRANCH   1   5
TORSDOF 41
ENDMDL
MODEL 4
REMARK VINA RESULT:      -4.9      3.269      9.311
REMARK WARNING: 32 MAX_TORS EXCEEDED!!!
REMARK  41 active torsions:
REMARK  status: ('A' for Active; 'I' for Inactive)
REMARK    1  A    between atoms: N_1  and  CA_2 
REMARK    2  A    between atoms: CA_2  and  CB_5 
REMARK    3  A    between atoms: CA_2  and  C_3 
REMARK       I    between atoms: C_3  and  N_15 
REMARK    4  A    between atoms: CB_5  and  CG_6 
REMARK    5  A    between atoms: N_15  and  CA_16 
REMARK    6  A    between atoms: CA_16  and  CB_19 
REMARK    7  A    between atoms: CA_16  and  C_17 
REMARK       I    between atoms: C_17  and  N_28 
REMARK    8  A    between atoms: CB_19  and  CG_20 
REMARK    9  A    between atoms: CG_20  and  CD_21 
REMARK   10  A    between atoms: CD_21  and  CE_22 
REMARK   11  A    between atoms: CE_22  and  NZ_23 
REMARK   12  A    between atoms: N_28  and  CA_29 
REMARK   13  A    between atoms: CA_29  and  C_30 
REMARK   14  A    between atoms: CA_29  and  CB_32 
REMARK       I    between atoms: C_30  and  N_37 
REMARK   15  A    between atoms: CB_32  and  OG1_33 
REMARK   16  A    between atoms: N_37  and  CA_38 
REMARK   17  A    between atoms: CA_38  and  C_39 
REMARK   18  A    between atoms: CA_38  and  CB_41 
REMARK       I    between atoms: C_39  and  N_46 
REMARK   19  A    between atoms: CB_41  and  CG_42 
REMARK   20  A    between atoms: N_46  and  CA_47 
REMARK   21  A    between atoms: CA_47  and  C_48 
REMARK   22  A    between atoms: CA_47  and  CB_50 
REMARK       I    between atoms: C_48  and  N_54 
REMARK   23  A    between atoms: CB_50  and  OG_51 
REMARK   24  A    between atoms: N_54  and  CA_55 
REMARK   25  A    between atoms: CA_55  and  CB_58 
REMARK   26  A    between atoms: CA_55  and  C_56 
REMARK       I    between atoms: C_56  and  N_66 
REMARK   27  A    between atoms: CB_58  and  CG_59 
REMARK   28  A    between atoms: N_66  and  CA_67 
REMARK   29  A    between atoms: CA_67  and  C_68 
REMARK   30  A    between atoms: CA_67  and  CB_70 
REMARK       I    between atoms: C_68  and  N_74 
REMARK   31  A    between atoms: N_74  and  CA_75 
REMARK   32  A    between atoms: CA_75  and  C_76 
REMARK       I    between atoms: C_76  and  N_79 
REMARK   33  A    between atoms: N_79  and  CA_80 
REMARK   34  A    between atoms: CA_80  and  CB_83 
REMARK   35  A    between atoms: CA_80  and  C_81 
REMARK       I    between atoms: C_81  and  N_88 
REMARK   36  A    between atoms: CB_83  and  CG_84 
REMARK   37  A    between atoms: N_88  and  CA_89 
REMARK   38  A    between atoms: CA_89  and  C_90 
REMARK   39  A    between atoms: CA_89  and  CB_92 
REMARK   40  A    between atoms: CB_92  and  CG_93 
REMARK   41  A    between atoms: CG_93  and  SD_94 
ROOT
ATOM      1  N   HIS     1      62.942  41.303  54.257  1.00  0.00    -0.057 N 
ATOM      2  H1  HIS     1      62.998  42.303  54.298  1.00 99.99     0.276 HD
ATOM      3  H2  HIS     1      62.657  41.041  53.353  1.00 99.99     0.276 HD
ATOM      4  H3  HIS     1      62.235  40.989  54.863  1.00 99.99     0.276 HD
ENDROOT
BRANCH   1   5
ATOM      5  CA  HIS     1      64.281  40.777  54.604  1.00  0.00     0.261 C 
BRANCH   5   6
ATOM      6  CB  HIS     1      64.268  40.412  56.104  1.00  0.00     0.087 C 
BRANCH   6   7
ATOM      7  CG  HIS     1      62.888  40.204  56.751  1.00  0.00     0.080 A 
ATOM      8  CD2 HIS     1      62.377  40.867  57.789  1.00  0.00     0.089 A 
ATOM      9  NE2 HIS     1      61.095  40.525  57.921  1.00  0.00    -0.334 N 
ATOM     10  HD1 HIS     1      60.470  40.815  58.645  1.00 99.99     0.168 HD
ATOM     11  CE1 HIS     1      60.808  39.651  56.964  1.00  0.00     0.175 A 
ATOM     12  ND1 HIS     1      61.917  39.444  56.263  1.00  0.00    -0.229 NA
ENDBRANCH   6   7
ENDBRANCH   5   6
BRANCH   5  13
ATOM     13  C   HIS     1      64.584  39.583  53.662  1.00  0.00     0.259 C 
ATOM     14  O   HIS     1      64.536  38.428  54.095  1.00  0.00    -0.271 OA
ATOM     15  N   LYS     2      64.665  39.838  52.359  1.00  0.00    -0.338 N 
ATOM     16  H   LYS     2      64.822  40.766  52.025  1.00 99.99     0.164 HD
BRANCH  15  17
ATOM     17  CA  LYS     2      64.904  38.779  51.357  1.00  0.00     0.159 C 
BRANCH  17  18
ATOM     18  CB  LYS     2      63.665  38.616  50.482  1.00  0.00     0.032 C 
BRANCH  18  19
ATOM     19  CG  LYS     2      62.387  38.128  51.165  1.00  0.00     0.004 C 
BRANCH  19  20
ATOM     20  CD  LYS     2      61.268  38.474  50.184  1.00  0.00     0.032 C 
BRANCH  20  21
ATOM     21  CE  LYS     2      61.724  39.067  48.855  1.00  0.00     0.206 C 
BRANCH  21  22
ATOM     22  NZ  LYS     2      60.662  38.819  47.870  1.00  0.00    -0.064 N 
ATOM     23  HZ1 LYS     2      61.049  38.417  47.040  1.00 99.99     0.275 HD
ATOM     24  HZ2 LYS     2      59.983  38.198  48.259  1.00 99.99     0.275 HD
ATOM     25  HZ3 LYS     2      60.220  39.688  47.644  1.00 99.99     0.275 HD
ENDBRANCH  21  22
ENDBRANCH  20  21
ENDBRANCH  19  20
ENDBRANCH  18  19
ENDBRANCH  17  18
BRANCH  17  26
ATOM     26  C   LYS     2      66.084  39.130  50.434  1.00  0.00     0.251 C 
ATOM     27  O   LYS     2      67.205  39.364  50.892  1.00  0.00    -0.271 OA
ATOM     28  N   THR     3      65.749  39.464  49.190  1.00  0.00    -0.336 N 
ATOM     29  H   THR     3      64.801  39.485  48.866  1.00 99.99     0.164 HD
BRANCH  28  30
ATOM     30  CA  THR     3      66.754  39.819  48.160  1.00  0.00     0.186 C 
BRANCH  30  31
ATOM     31  C   THR     3      67.208  41.286  48.166  1.00  0.00     0.253 C 
ATOM     32  O   THR     3      68.412  41.533  48.175  1.00  0.00    -0.270 OA
ATOM     33  N   ASP     4      66.258  42.197  48.400  1.00  0.00    -0.337 N 
ATOM     34  H   ASP     4      65.305  41.909  48.471  1.00 99.99     0.164 HD
BRANCH  33  35
ATOM     35  CA  ASP     4      66.494  43.655  48.520  1.00  0.00     0.170 C 
BRANCH  35  36
ATOM     36  C   ASP     4      65.383  44.403  49.287  1.00  0.00     0.252 C 
ATOM     37  O   ASP     4      65.578  45.532  49.736  1.00  0.00    -0.271 OA
ATOM     38  N   SER     5      64.380  43.621  49.675  1.00  0.00    -0.336 N 
ATOM     39  H   SER     5      64.309  42.678  49.347  1.00 99.99     0.164 HD
BRANCH  38  40
ATOM     40  CA  SER     5      63.201  44.054  50.448  1.00  0.00     0.189 C 
BRANCH  40  41
ATOM     41  C   SER     5      62.316  42.874  50.870  1.00  0.00     0.254 C 
ATOM     42  O   SER     5      62.838  41.824  51.237  1.00  0.00    -0.270 OA
ATOM     43  N   PHE     6      61.000  43.001  50.682  1.00  0.00    -0.337 N 
ATOM     44  H   PHE     6      60.596  43.780  50.202  1.00 99.99     0.164 HD
BRANCH  43  45
ATOM     45  CA  PHE     6      60.045  41.957  51.109  1.00  0.00     0.164 C 
BRANCH  45  46
ATOM     46  CB  PHE     6      59.615  42.210  52.560  1.00  0.00     0.056 C 
BRANCH  46  47
ATOM     47  CG  PHE     6      59.017  40.959  53.206  1.00  0.00    -0.044 A 
ATOM     48  CD1 PHE     6      57.733  40.981  53.743  1.00  0.00     0.008 A 
ATOM     49  CE1 PHE     6      57.194  39.831  54.306  1.00  0.00     0.001 A 
ATOM     50  CZ  PHE     6      57.936  38.657  54.333  1.00  0.00     0.000 A 
ATOM     51  CE2 PHE     6      59.213  38.631  53.786  1.00  0.00     0.001 A 
ATOM     52  CD2 PHE     6      59.756  39.783  53.229  1.00  0.00     0.008 A 
ENDBRANCH  46  47
ENDBRANCH  45  46
BRANCH  45  53
ATOM     53  C   PHE     6      58.844  41.788  50.156  1.00  0.00     0.251 C 
ATOM     54  O   PHE     6      58.913  40.976  49.237  1.00  0.00    -0.271 OA
ATOM     55  N   VAL     7      57.865  42.687  50.259  1.00  0.00    -0.338 N 
ATOM     56  H   VAL     7      57.862  43.386  50.980  1.00 99.99     0.164 HD
BRANCH  55  57
ATOM     57  CA  VAL     7      56.676  42.717  49.373  1.00  0.00     0.159 C 
BRANCH  57  58
ATOM     58  C   VAL     7      56.914  43.594  48.116  1.00  0.00     0.251 C 
ATOM     59  O   VAL     7      56.270  44.628  47.956  1.00  0.00    -0.271 OA
ATOM     60  N   GLY     8      57.849  43.162  47.255  1.00  0.00    -0.336 N 
ATOM     61  H   GLY     8      58.513  42.439  47.480  1.00 99.99     0.164 HD
BRANCH  60  62
ATOM     62  CA  GLY     8      58.097  43.774  45.929  1.00  0.00     0.189 C 
BRANCH  62  63
ATOM     63  C   GLY     8      58.643  42.826  44.840  1.00  0.00     0.253 C 
ATOM     64  N   LEU     9      58.926  41.581  45.226  1.00  0.00    -0.337 N 
ATOM     65  H   LEU     9      58.902  41.331  46.193  1.00 99.99     0.164 HD
ATOM     66  O   GLY     8      58.954  43.275  43.739  1.00  0.00    -0.270 OA
BRANCH  64  67
ATOM     67  CA  LEU     9      59.458  40.522  44.336  1.00  0.00     0.159 C 
BRANCH  67  68
ATOM     68  CB  LEU     9      60.951  40.307  44.619  1.00  0.00     0.032 C 
BRANCH  68  69
ATOM     69  CG  LEU     9      61.884  40.887  43.551  1.00  0.00     0.002 C 
ATOM     70  CD2 LEU     9      62.333  42.307  43.911  1.00  0.00     0.000 C 
ATOM     71  CD1 LEU     9      61.154  40.910  42.206  1.00  0.00     0.000 C 
ENDBRANCH  68  69
ENDBRANCH  67  68
BRANCH  67  72
ATOM     72  C   LEU     9      58.751  39.155  44.392  1.00  0.00     0.251 C 
ATOM     73  O   LEU     9      59.321  38.144  43.983  1.00  0.00    -0.271 OA
ATOM     74  N   MET    10      57.560  39.127  44.984  1.00  0.00    -0.336 N 
ATOM     75  H   MET    10      57.131  39.965  45.321  1.00 99.99     0.164 HD
BRANCH  74  76
ATOM     76  CA  MET    10      56.767  37.895  45.201  1.00  0.00     0.169 C 
BRANCH  76  77
ATOM     77  C   MET    10      55.297  38.061  44.773  1.00  0.00     0.206 C 
ATOM     78  O   MET    10      54.959  39.142  44.245  1.00 99.99    -0.646 OA
ATOM     79  OXT MET    10      54.554  37.071  44.947  1.00 99.99    -0.646 OA
ENDBRANCH  76  77
BRANCH  76  80
ATOM     80  CB  MET    10      56.794  37.557  46.696  1.00  0.00     0.045 C 
BRANCH  80  81
ATOM     81  CG  MET    10      56.813  38.761  47.646  1.00  0.00     0.060 C 
BRANCH  81  82
ATOM     82  SD  MET    10      55.548  38.749  48.973  1.00  0.00    -0.139 SA
ATOM     83  CE  MET    10      56.544  38.711  50.450  1.00  0.00     0.069 C 
ENDBRANCH  81  82
ENDBRANCH  80  81
ENDBRANCH  76  80
ENDBRANCH  74  76
ENDBRANCH  67  72
ENDBRANCH  64  67
ENDBRANCH  62  63
ENDBRANCH  60  62
ENDBRANCH  57  58
BRANCH  57  84
ATOM     84  CB  VAL     7      55.426  43.125  50.188  1.00  0.00     0.029 C 
ATOM     85  CG2 VAL     7      55.760  43.250  51.680  1.00  0.00     0.002 C 
ATOM     86  CG1 VAL     7      54.266  42.131  50.062  1.00  0.00     0.002 C 
ENDBRANCH  57  84
ENDBRANCH  55  57
ENDBRANCH  45  53
ENDBRANCH  43  45
ENDBRANCH  40  41
BRANCH  40  87
ATOM     87  CB  SER     5      62.359  45.027  49.611  1.00  0.00     0.169 C 
BRANCH  87  88
ATOM     88  OG  SER     5      61.903  44.406  48.406  1.00  0.00    -0.380 OA
ATOM     89  HG  SER     5      60.902  44.428  48.363  1.00 99.99     0.211 HD
ENDBRANCH  87  88
ENDBRANCH  40  87
ENDBRANCH  38  40
ENDBRANCH  35  36
BRANCH  35  90
ATOM     90  CB  ASP     4      66.781  44.278  47.134  1.00  0.00     0.129 C 
BRANCH  90  91
ATOM     91  CG  ASP     4      66.019  43.718  45.920  1.00  0.00     0.188 C 
ATOM     92  OD1 ASP     4      64.785  43.901  45.843  1.00  0.00    -0.647 OA
ATOM     93  OD2 ASP     4      66.669  42.983  45.148  1.00  0.00    -0.647 OA
ENDBRANCH  90  91
ENDBRANCH  35  90
ENDBRANCH  33  35
ENDBRANCH  30  31
BRANCH  30  94
ATOM     94  CB  THR     3      66.314  39.414  46.750  1.00  0.00     0.140 C 
ATOM     95  CG2 THR     3      64.788  39.362  46.645  1.00  0.00     0.034 C 
BRANCH  94  96
ATOM     96  OG1 THR     3      66.892  40.301  45.787  1.00  0.00    -0.382 OA
ATOM     97  HG1 THR     3      67.226  41.121  46.261  1.00 99.99     0.210 HD
ENDBRANCH  94  96
ENDBRANCH  30  94
ENDBRANCH  28  30
ENDBRANCH  17  26
ENDBRANCH  15  17
ENDBRANCH   5  13
ENDBRANCH   1   5
TORSDOF 41
ENDMDL
MODEL 5
REMARK VINA RESULT:      -4.9      3.309      8.824
REMARK WARNING: 32 MAX_TORS EXCEEDED!!!
REMARK  41 active torsions:
REMARK  status: ('A' for Active; 'I' for Inactive)
REMARK    1  A    between atoms: N_1  and  CA_2 
REMARK    2  A    between atoms: CA_2  and  CB_5 
REMARK    3  A    between atoms: CA_2  and  C_3 
REMARK       I    between atoms: C_3  and  N_15 
REMARK    4  A    between atoms: CB_5  and  CG_6 
REMARK    5  A    between atoms: N_15  and  CA_16 
REMARK    6  A    between atoms: CA_16  and  CB_19 
REMARK    7  A    between atoms: CA_16  and  C_17 
REMARK       I    between atoms: C_17  and  N_28 
REMARK    8  A    between atoms: CB_19  and  CG_20 
REMARK    9  A    between atoms: CG_20  and  CD_21 
REMARK   10  A    between atoms: CD_21  and  CE_22 
REMARK   11  A    between atoms: CE_22  and  NZ_23 
REMARK   12  A    between atoms: N_28  and  CA_29 
REMARK   13  A    between atoms: CA_29  and  C_30 
REMARK   14  A    between atoms: CA_29  and  CB_32 
REMARK       I    between atoms: C_30  and  N_37 
REMARK   15  A    between atoms: CB_32  and  OG1_33 
REMARK   16  A    between atoms: N_37  and  CA_38 
REMARK   17  A    between atoms: CA_38  and  C_39 
REMARK   18  A    between atoms: CA_38  and  CB_41 
REMARK       I    between atoms: C_39  and  N_46 
REMARK   19  A    between atoms: CB_41  and  CG_42 
REMARK   20  A    between atoms: N_46  and  CA_47 
REMARK   21  A    between atoms: CA_47  and  C_48 
REMARK   22  A    between atoms: CA_47  and  CB_50 
REMARK       I    between atoms: C_48  and  N_54 
REMARK   23  A    between atoms: CB_50  and  OG_51 
REMARK   24  A    between atoms: N_54  and  CA_55 
REMARK   25  A    between atoms: CA_55  and  CB_58 
REMARK   26  A    between atoms: CA_55  and  C_56 
REMARK       I    between atoms: C_56  and  N_66 
REMARK   27  A    between atoms: CB_58  and  CG_59 
REMARK   28  A    between atoms: N_66  and  CA_67 
REMARK   29  A    between atoms: CA_67  and  C_68 
REMARK   30  A    between atoms: CA_67  and  CB_70 
REMARK       I    between atoms: C_68  and  N_74 
REMARK   31  A    between atoms: N_74  and  CA_75 
REMARK   32  A    between atoms: CA_75  and  C_76 
REMARK       I    between atoms: C_76  and  N_79 
REMARK   33  A    between atoms: N_79  and  CA_80 
REMARK   34  A    between atoms: CA_80  and  CB_83 
REMARK   35  A    between atoms: CA_80  and  C_81 
REMARK       I    between atoms: C_81  and  N_88 
REMARK   36  A    between atoms: CB_83  and  CG_84 
REMARK   37  A    between atoms: N_88  and  CA_89 
REMARK   38  A    between atoms: CA_89  and  C_90 
REMARK   39  A    between atoms: CA_89  and  CB_92 
REMARK   40  A    between atoms: CB_92  and  CG_93 
REMARK   41  A    between atoms: CG_93  and  SD_94 
ROOT
ATOM      1  N   HIS     1      59.710  41.222  40.724  1.00  0.00    -0.057 N 
ATOM      2  H1  HIS     1      60.138  42.038  40.329  1.00 99.99     0.276 HD
ATOM      3  H2  HIS     1      60.290  40.447  40.547  1.00 99.99     0.276 HD
ATOM      4  H3  HIS     1      58.865  41.037  40.258  1.00 99.99     0.276 HD
ENDROOT
BRANCH   1   5
ATOM      5  CA  HIS     1      59.533  41.479  42.171  1.00  0.00     0.261 C 
BRANCH   5   6
ATOM      6  CB  HIS     1      58.063  41.169  42.526  1.00  0.00     0.087 C 
BRANCH   6   7
ATOM      7  CG  HIS     1      57.653  39.687  42.531  1.00  0.00     0.080 A 
ATOM      8  CD2 HIS     1      57.177  38.987  43.562  1.00  0.00     0.089 A 
ATOM      9  NE2 HIS     1      56.766  37.800  43.114  1.00  0.00    -0.334 N 
ATOM     10  HD1 HIS     1      56.417  37.041  43.663  1.00 99.99     0.168 HD
ATOM     11  CE1 HIS     1      56.985  37.762  41.805  1.00  0.00     0.175 A 
ATOM     12  ND1 HIS     1      57.548  38.915  41.458  1.00  0.00    -0.229 NA
ENDBRANCH   6   7
ENDBRANCH   5   6
BRANCH   5  13
ATOM     13  C   HIS     1      60.568  40.617  42.939  1.00  0.00     0.259 C 
ATOM     14  O   HIS     1      61.479  40.055  42.326  1.00  0.00    -0.271 OA
ATOM     15  N   LYS     2      60.565  40.700  44.268  1.00  0.00    -0.338 N 
ATOM     16  H   LYS     2      59.770  41.051  44.760  1.00 99.99     0.164 HD
BRANCH  15  17
ATOM     17  CA  LYS     2      61.529  39.963  45.109  1.00  0.00     0.159 C 
BRANCH  17  18
ATOM     18  CB  LYS     2      62.425  40.956  45.846  1.00  0.00     0.032 C 
BRANCH  18  19
ATOM     19  CG  LYS     2      62.232  42.439  45.532  1.00  0.00     0.004 C 
BRANCH  19  20
ATOM     20  CD  LYS     2      63.588  42.903  45.007  1.00  0.00     0.032 C 
BRANCH  20  21
ATOM     21  CE  LYS     2      64.043  42.253  43.706  1.00  0.00     0.206 C 
BRANCH  21  22
ATOM     22  NZ  LYS     2      65.507  42.371  43.636  1.00  0.00    -0.064 N 
ATOM     23  HZ1 LYS     2      65.821  43.110  44.232  1.00 99.99     0.275 HD
ATOM     24  HZ2 LYS     2      65.926  41.509  43.920  1.00 99.99     0.275 HD
ATOM     25  HZ3 LYS     2      65.773  42.568  42.692  1.00 99.99     0.275 HD
ENDBRANCH  21  22
ENDBRANCH  20  21
ENDBRANCH  19  20
ENDBRANCH  18  19
ENDBRANCH  17  18
BRANCH  17  26
ATOM     26  C   LYS     2      60.816  39.104  46.168  1.00  0.00     0.251 C 
ATOM     27  O   LYS     2      59.779  38.494  45.899  1.00  0.00    -0.271 OA
ATOM     28  N   THR     3      61.203  39.316  47.423  1.00  0.00    -0.336 N 
ATOM     29  H   THR     3      61.910  39.982  47.673  1.00 99.99     0.164 HD
BRANCH  28  30
ATOM     30  CA  THR     3      60.634  38.570  48.571  1.00  0.00     0.186 C 
BRANCH  30  31
ATOM     31  C   THR     3      59.409  39.219  49.231  1.00  0.00     0.253 C 
ATOM     32  O   THR     3      59.111  40.371  48.924  1.00  0.00    -0.270 OA
ATOM     33  N   ASP     4      58.887  38.566  50.275  1.00  0.00    -0.337 N 
ATOM     34  H   ASP     4      59.242  37.668  50.524  1.00 99.99     0.164 HD
BRANCH  33  35
ATOM     35  CA  ASP     4      57.753  39.053  51.097  1.00  0.00     0.170 C 
BRANCH  35  36
ATOM     36  C   ASP     4      58.095  40.288  51.958  1.00  0.00     0.252 C 
ATOM     37  O   ASP     4      57.270  41.184  52.128  1.00  0.00    -0.271 OA
ATOM     38  N   SER     5      59.395  40.429  52.199  1.00  0.00    -0.336 N 
ATOM     39  H   SER     5      60.042  39.702  51.966  1.00 99.99     0.164 HD
BRANCH  38  40
ATOM     40  CA  SER     5      60.013  41.528  52.965  1.00  0.00     0.189 C 
BRANCH  40  41
ATOM     41  C   SER     5      60.752  42.523  52.062  1.00  0.00     0.254 C 
ATOM     42  O   SER     5      61.036  43.638  52.492  1.00  0.00    -0.270 OA
ATOM     43  N   PHE     6      60.931  42.172  50.786  1.00  0.00    -0.337 N 
ATOM     44  H   PHE     6      60.526  41.347  50.391  1.00 99.99     0.164 HD
BRANCH  43  45
ATOM     45  CA  PHE     6      61.685  43.021  49.840  1.00  0.00     0.164 C 
BRANCH  45  46
ATOM     46  CB  PHE     6      62.857  42.226  49.251  1.00  0.00     0.056 C 
BRANCH  46  47
ATOM     47  CG  PHE     6      64.108  43.090  49.081  1.00  0.00    -0.044 A 
ATOM     48  CD1 PHE     6      65.170  42.657  48.291  1.00  0.00     0.008 A 
ATOM     49  CE1 PHE     6      66.289  43.463  48.127  1.00  0.00     0.001 A 
ATOM     50  CZ  PHE     6      66.350  44.703  48.750  1.00  0.00     0.000 A 
ATOM     51  CE2 PHE     6      65.285  45.141  49.528  1.00  0.00     0.001 A 
ATOM     52  CD2 PHE     6      64.168  44.333  49.699  1.00  0.00     0.008 A 
ENDBRANCH  46  47
ENDBRANCH  45  46
BRANCH  45  53
ATOM     53  C   PHE     6      60.805  43.671  48.753  1.00  0.00     0.251 C 
ATOM     54  O   PHE     6      61.115  44.772  48.303  1.00  0.00    -0.271 OA
ATOM     55  N   VAL     7      59.631  43.089  48.504  1.00  0.00    -0.338 N 
ATOM     56  H   VAL     7      59.370  42.220  48.934  1.00 99.99     0.164 HD
BRANCH  55  57
ATOM     57  CA  VAL     7      58.632  43.624  47.546  1.00  0.00     0.159 C 
BRANCH  57  58
ATOM     58  C   VAL     7      57.209  43.665  48.159  1.00  0.00     0.251 C 
ATOM     59  O   VAL     7      56.347  44.389  47.667  1.00  0.00    -0.271 OA
ATOM     60  N   GLY     8      56.993  42.870  49.220  1.00  0.00    -0.336 N 
ATOM     61  H   GLY     8      57.622  42.134  49.494  1.00 99.99     0.164 HD
BRANCH  60  62
ATOM     62  CA  GLY     8      55.754  42.897  50.033  1.00  0.00     0.189 C 
BRANCH  62  63
ATOM     63  C   GLY     8      54.732  41.777  49.742  1.00  0.00     0.253 C 
ATOM     64  N   LEU     9      54.488  40.924  50.738  1.00  0.00    -0.337 N 
ATOM     65  H   LEU     9      55.038  40.946  51.573  1.00 99.99     0.164 HD
ATOM     66  O   GLY     8      54.323  41.606  48.597  1.00  0.00    -0.270 OA
BRANCH  64  67
ATOM     67  CA  LEU     9      53.543  39.785  50.662  1.00  0.00     0.159 C 
BRANCH  67  68
ATOM     68  CB  LEU     9      52.142  40.294  50.300  1.00  0.00     0.032 C 
BRANCH  68  69
ATOM     69  CG  LEU     9      51.011  39.661  51.117  1.00  0.00     0.002 C 
ATOM     70  CD2 LEU     9      51.541  39.022  52.405  1.00  0.00     0.000 C 
ATOM     71  CD1 LEU     9      50.316  38.595  50.268  1.00  0.00     0.000 C 
ENDBRANCH  68  69
ENDBRANCH  67  68
BRANCH  67  72
ATOM     72  C   LEU     9      53.911  38.647  49.692  1.00  0.00     0.251 C 
ATOM     73  O   LEU     9      54.504  37.649  50.101  1.00  0.00    -0.271 OA
ATOM     74  N   MET    10      53.473  38.769  48.441  1.00  0.00    -0.336 N 
ATOM     75  H   MET    10      52.980  39.587  48.145  1.00 99.99     0.164 HD
BRANCH  74  76
ATOM     76  CA  MET    10      53.660  37.743  47.389  1.00  0.00     0.169 C 
BRANCH  76  77
ATOM     77  C   MET    10      54.276  38.327  46.104  1.00  0.00     0.206 C 
ATOM     78  O   MET    10      54.438  39.565  46.042  1.00 99.99    -0.646 OA
ATOM     79  OXT MET    10      54.615  37.502  45.228  1.00 99.99    -0.646 OA
ENDBRANCH  76  77
BRANCH  76  80
ATOM     80  CB  MET    10      52.291  37.152  47.037  1.00  0.00     0.045 C 
BRANCH  80  81
ATOM     81  CG  MET    10      51.871  35.924  47.855  1.00  0.00     0.060 C 
BRANCH  81  82
ATOM     82  SD  MET    10      50.081  35.527  47.834  1.00  0.00    -0.139 SA
ATOM     83  CE  MET    10      49.814  34.879  49.473  1.00  0.00     0.069 C 
ENDBRANCH  81  82
ENDBRANCH  80  81
ENDBRANCH  76  80
ENDBRANCH  74  76
ENDBRANCH  67  72
ENDBRANCH  64  67
ENDBRANCH  62  63
ENDBRANCH  60  62
ENDBRANCH  57  58
BRANCH  57  84
ATOM     84  CB  VAL     7      58.713  42.842  46.214  1.00  0.00     0.029 C 
ATOM     85  CG2 VAL     7      58.654  43.795  45.013  1.00  0.00     0.002 C 
ATOM     86  CG1 VAL     7      57.586  41.818  46.039  1.00  0.00     0.002 C 
ENDBRANCH  57  84
ENDBRANCH  55  57
ENDBRANCH  45  53
ENDBRANCH  43  45
ENDBRANCH  40  41
BRANCH  40  87
ATOM     87  CB  SER     5      61.006  40.955  53.986  1.00  0.00     0.169 C 
BRANCH  87  88
ATOM     88  OG  SER     5      62.122  40.345  53.330  1.00  0.00    -0.380 OA
ATOM     89  HG  SER     5      61.991  39.353  53.275  1.00 99.99     0.211 HD
ENDBRANCH  87  88
ENDBRANCH  40  87
ENDBRANCH  38  40
ENDBRANCH  35  36
BRANCH  35  90
ATOM     90  CB  ASP     4      57.146  37.900  51.929  1.00  0.00     0.129 C 
BRANCH  90  91
ATOM     91  CG  ASP     4      57.984  37.324  53.084  1.00  0.00     0.188 C 
ATOM     92  OD1 ASP     4      59.163  36.975  52.860  1.00  0.00    -0.647 OA
ATOM     93  OD2 ASP     4      57.379  37.107  54.153  1.00  0.00    -0.647 OA
ENDBRANCH  90  91
ENDBRANCH  35  90
ENDBRANCH  33  35
ENDBRANCH  30  31
BRANCH  30  94
ATOM     94  CB  THR     3      61.688  38.241  49.634  1.00  0.00     0.140 C 
ATOM     95  CG2 THR     3      63.077  38.108  49.006  1.00  0.00     0.034 C 
BRANCH  94  96
ATOM     96  OG1 THR     3      61.656  39.227  50.671  1.00  0.00    -0.382 OA
ATOM     97  HG1 THR     3      60.710  39.546  50.786  1.00 99.99     0.210 HD
ENDBRANCH  94  96
ENDBRANCH  30  94
ENDBRANCH  28  30
ENDBRANCH  17  26
ENDBRANCH  15  17
ENDBRANCH   5  13
ENDBRANCH   1   5
TORSDOF 41
ENDMDL
MODEL 6
REMARK VINA RESULT:      -4.9      2.902     11.031
REMARK WARNING: 32 MAX_TORS EXCEEDED!!!
REMARK  41 active torsions:
REMARK  status: ('A' for Active; 'I' for Inactive)
REMARK    1  A    between atoms: N_1  and  CA_2 
REMARK    2  A    between atoms: CA_2  and  CB_5 
REMARK    3  A    between atoms: CA_2  and  C_3 
REMARK       I    between atoms: C_3  and  N_15 
REMARK    4  A    between atoms: CB_5  and  CG_6 
REMARK    5  A    between atoms: N_15  and  CA_16 
REMARK    6  A    between atoms: CA_16  and  CB_19 
REMARK    7  A    between atoms: CA_16  and  C_17 
REMARK       I    between atoms: C_17  and  N_28 
REMARK    8  A    between atoms: CB_19  and  CG_20 
REMARK    9  A    between atoms: CG_20  and  CD_21 
REMARK   10  A    between atoms: CD_21  and  CE_22 
REMARK   11  A    between atoms: CE_22  and  NZ_23 
REMARK   12  A    between atoms: N_28  and  CA_29 
REMARK   13  A    between atoms: CA_29  and  C_30 
REMARK   14  A    between atoms: CA_29  and  CB_32 
REMARK       I    between atoms: C_30  and  N_37 
REMARK   15  A    between atoms: CB_32  and  OG1_33 
REMARK   16  A    between atoms: N_37  and  CA_38 
REMARK   17  A    between atoms: CA_38  and  C_39 
REMARK   18  A    between atoms: CA_38  and  CB_41 
REMARK       I    between atoms: C_39  and  N_46 
REMARK   19  A    between atoms: CB_41  and  CG_42 
REMARK   20  A    between atoms: N_46  and  CA_47 
REMARK   21  A    between atoms: CA_47  and  C_48 
REMARK   22  A    between atoms: CA_47  and  CB_50 
REMARK       I    between atoms: C_48  and  N_54 
REMARK   23  A    between atoms: CB_50  and  OG_51 
REMARK   24  A    between atoms: N_54  and  CA_55 
REMARK   25  A    between atoms: CA_55  and  CB_58 
REMARK   26  A    between atoms: CA_55  and  C_56 
REMARK       I    between atoms: C_56  and  N_66 
REMARK   27  A    between atoms: CB_58  and  CG_59 
REMARK   28  A    between atoms: N_66  and  CA_67 
REMARK   29  A    between atoms: CA_67  and  C_68 
REMARK   30  A    between atoms: CA_67  and  CB_70 
REMARK       I    between atoms: C_68  and  N_74 
REMARK   31  A    between atoms: N_74  and  CA_75 
REMARK   32  A    between atoms: CA_75  and  C_76 
REMARK       I    between atoms: C_76  and  N_79 
REMARK   33  A    between atoms: N_79  and  CA_80 
REMARK   34  A    between atoms: CA_80  and  CB_83 
REMARK   35  A    between atoms: CA_80  and  C_81 
REMARK       I    between atoms: C_81  and  N_88 
REMARK   36  A    between atoms: CB_83  and  CG_84 
REMARK   37  A    between atoms: N_88  and  CA_89 
REMARK   38  A    between atoms: CA_89  and  C_90 
REMARK   39  A    between atoms: CA_89  and  CB_92 
REMARK   40  A    between atoms: CB_92  and  CG_93 
REMARK   41  A    between atoms: CG_93  and  SD_94 
ROOT
ATOM      1  N   HIS     1      63.022  43.397  50.947  1.00  0.00    -0.057 N 
ATOM      2  H1  HIS     1      63.953  43.291  50.590  1.00 99.99     0.276 HD
ATOM      3  H2  HIS     1      63.057  43.961  51.753  1.00 99.99     0.276 HD
ATOM      4  H3  HIS     1      62.685  42.523  51.246  1.00 99.99     0.276 HD
ENDROOT
BRANCH   1   5
ATOM      5  CA  HIS     1      62.206  43.998  49.869  1.00  0.00     0.261 C 
BRANCH   5   6
ATOM      6  CB  HIS     1      62.792  45.394  49.561  1.00  0.00     0.087 C 
BRANCH   6   7
ATOM      7  CG  HIS     1      64.321  45.487  49.434  1.00  0.00     0.080 A 
ATOM      8  CD2 HIS     1      65.149  46.211  50.189  1.00  0.00     0.089 A 
ATOM      9  NE2 HIS     1      66.404  45.874  49.885  1.00  0.00    -0.334 N 
ATOM     10  HD1 HIS     1      67.238  46.289  50.245  1.00 99.99     0.168 HD
ATOM     11  CE1 HIS     1      66.356  44.939  48.944  1.00  0.00     0.175 A 
ATOM     12  ND1 HIS     1      65.077  44.722  48.658  1.00  0.00    -0.229 NA
ENDBRANCH   6   7
ENDBRANCH   5   6
BRANCH   5  13
ATOM     13  C   HIS     1      62.215  43.025  48.662  1.00  0.00     0.259 C 
ATOM     14  O   HIS     1      62.925  42.016  48.689  1.00  0.00    -0.271 OA
ATOM     15  N   LYS     2      61.279  43.198  47.731  1.00  0.00    -0.338 N 
ATOM     16  H   LYS     2      60.792  44.064  47.646  1.00 99.99     0.164 HD
BRANCH  15  17
ATOM     17  CA  LYS     2      61.156  42.309  46.558  1.00  0.00     0.159 C 
BRANCH  17  18
ATOM     18  CB  LYS     2      59.741  42.403  45.994  1.00  0.00     0.032 C 
BRANCH  18  19
ATOM     19  CG  LYS     2      58.586  42.366  46.994  1.00  0.00     0.004 C 
BRANCH  19  20
ATOM     20  CD  LYS     2      57.846  43.684  46.780  1.00  0.00     0.032 C 
BRANCH  20  21
ATOM     21  CE  LYS     2      56.842  44.054  47.866  1.00  0.00     0.206 C 
BRANCH  21  22
ATOM     22  NZ  LYS     2      56.717  42.900  48.768  1.00  0.00    -0.064 N 
ATOM     23  HZ1 LYS     2      55.891  42.381  48.551  1.00 99.99     0.275 HD
ATOM     24  HZ2 LYS     2      57.519  42.311  48.671  1.00 99.99     0.275 HD
ATOM     25  HZ3 LYS     2      56.666  43.228  49.712  1.00 99.99     0.275 HD
ENDBRANCH  21  22
ENDBRANCH  20  21
ENDBRANCH  19  20
ENDBRANCH  18  19
ENDBRANCH  17  18
BRANCH  17  26
ATOM     26  C   LYS     2      62.132  42.710  45.439  1.00  0.00     0.251 C 
ATOM     27  O   LYS     2      61.731  43.256  44.409  1.00  0.00    -0.271 OA
ATOM     28  N   THR     3      63.342  42.160  45.518  1.00  0.00    -0.336 N 
ATOM     29  H   THR     3      63.609  41.531  46.252  1.00 99.99     0.164 HD
BRANCH  28  30
ATOM     30  CA  THR     3      64.413  42.442  44.535  1.00  0.00     0.186 C 
BRANCH  30  31
ATOM     31  C   THR     3      64.169  41.891  43.122  1.00  0.00     0.253 C 
ATOM     32  O   THR     3      64.712  42.443  42.169  1.00  0.00    -0.270 OA
ATOM     33  N   ASP     4      63.189  40.989  43.003  1.00  0.00    -0.337 N 
ATOM     34  H   ASP     4      62.727  40.650  43.820  1.00 99.99     0.164 HD
BRANCH  33  35
ATOM     35  CA  ASP     4      62.743  40.388  41.723  1.00  0.00     0.170 C 
BRANCH  35  36
ATOM     36  C   ASP     4      61.406  40.957  41.202  1.00  0.00     0.252 C 
ATOM     37  O   ASP     4      61.116  40.890  40.009  1.00  0.00    -0.271 OA
ATOM     38  N   SER     5      60.798  41.769  42.062  1.00  0.00    -0.336 N 
ATOM     39  H   SER     5      61.123  41.853  43.005  1.00 99.99     0.164 HD
BRANCH  38  40
ATOM     40  CA  SER     5      59.527  42.477  41.824  1.00  0.00     0.189 C 
BRANCH  40  41
ATOM     41  C   SER     5      58.352  41.512  41.621  1.00  0.00     0.254 C 
ATOM     42  O   SER     5      57.510  41.753  40.759  1.00  0.00    -0.270 OA
ATOM     43  N   PHE     6      58.224  40.513  42.497  1.00  0.00    -0.337 N 
ATOM     44  H   PHE     6      58.800  40.434  43.313  1.00 99.99     0.164 HD
BRANCH  43  45
ATOM     45  CA  PHE     6      57.171  39.485  42.365  1.00  0.00     0.164 C 
BRANCH  45  46
ATOM     46  CB  PHE     6      57.535  38.512  41.237  1.00  0.00     0.056 C 
BRANCH  46  47
ATOM     47  CG  PHE     6      56.446  38.444  40.164  1.00  0.00    -0.044 A 
ATOM     48  CD1 PHE     6      55.099  38.449  40.516  1.00  0.00     0.008 A 
ATOM     49  CE1 PHE     6      54.122  38.411  39.529  1.00  0.00     0.001 A 
ATOM     50  CZ  PHE     6      54.488  38.369  38.190  1.00  0.00     0.000 A 
ATOM     51  CE2 PHE     6      55.832  38.377  37.838  1.00  0.00     0.001 A 
ATOM     52  CD2 PHE     6      56.810  38.407  38.824  1.00  0.00     0.008 A 
ENDBRANCH  46  47
ENDBRANCH  45  46
BRANCH  45  53
ATOM     53  C   PHE     6      56.840  38.763  43.687  1.00  0.00     0.251 C 
ATOM     54  O   PHE     6      56.518  37.578  43.663  1.00  0.00    -0.271 OA
ATOM     55  N   VAL     7      56.721  39.527  44.773  1.00  0.00    -0.338 N 
ATOM     56  H   VAL     7      56.926  40.509  44.755  1.00 99.99     0.164 HD
BRANCH  55  57
ATOM     57  CA  VAL     7      56.334  39.007  46.108  1.00  0.00     0.159 C 
BRANCH  57  58
ATOM     58  C   VAL     7      55.305  39.929  46.811  1.00  0.00     0.251 C 
ATOM     59  O   VAL     7      55.329  41.142  46.614  1.00  0.00    -0.271 OA
ATOM     60  N   GLY     8      54.410  39.326  47.610  1.00  0.00    -0.336 N 
ATOM     61  H   GLY     8      54.257  38.331  47.612  1.00 99.99     0.164 HD
BRANCH  60  62
ATOM     62  CA  GLY     8      53.462  40.053  48.486  1.00  0.00     0.189 C 
BRANCH  62  63
ATOM     63  C   GLY     8      54.083  40.762  49.709  1.00  0.00     0.253 C 
ATOM     64  N   LEU     9      54.578  39.973  50.663  1.00  0.00    -0.337 N 
ATOM     65  H   LEU     9      54.432  38.984  50.632  1.00 99.99     0.164 HD
ATOM     66  O   GLY     8      53.950  41.976  49.844  1.00  0.00    -0.270 OA
BRANCH  64  67
ATOM     67  CA  LEU     9      55.214  40.455  51.912  1.00  0.00     0.159 C 
BRANCH  67  68
ATOM     68  CB  LEU     9      54.505  39.841  53.127  1.00  0.00     0.032 C 
BRANCH  68  69
ATOM     69  CG  LEU     9      53.660  38.604  52.805  1.00  0.00     0.002 C 
ATOM     70  CD2 LEU     9      52.182  38.833  53.140  1.00  0.00     0.000 C 
ATOM     71  CD1 LEU     9      54.186  37.414  53.610  1.00  0.00     0.000 C 
ENDBRANCH  68  69
ENDBRANCH  67  68
BRANCH  67  72
ATOM     72  C   LEU     9      56.727  40.207  52.057  1.00  0.00     0.251 C 
ATOM     73  O   LEU     9      57.160  39.062  52.181  1.00  0.00    -0.271 OA
ATOM     74  N   MET    10      57.516  41.273  51.943  1.00  0.00    -0.336 N 
ATOM     75  H   MET    10      57.132  42.189  51.826  1.00 99.99     0.164 HD
BRANCH  74  76
ATOM     76  CA  MET    10      58.996  41.221  51.975  1.00  0.00     0.169 C 
BRANCH  76  77
ATOM     77  C   MET    10      59.608  42.414  52.732  1.00  0.00     0.206 C 
ATOM     78  O   MET    10      58.828  43.236  53.259  1.00 99.99    -0.646 OA
ATOM     79  OXT MET    10      60.856  42.444  52.802  1.00 99.99    -0.646 OA
ENDBRANCH  76  77
BRANCH  76  80
ATOM     80  CB  MET    10      59.515  41.251  50.533  1.00  0.00     0.045 C 
BRANCH  80  81
ATOM     81  CG  MET    10      60.453  40.101  50.144  1.00  0.00     0.060 C 
BRANCH  81  82
ATOM     82  SD  MET    10      60.735  38.832  51.437  1.00  0.00    -0.139 SA
ATOM     83  CE  MET    10      59.935  37.398  50.746  1.00  0.00     0.069 C 
ENDBRANCH  81  82
ENDBRANCH  80  81
ENDBRANCH  76  80
ENDBRANCH  74  76
ENDBRANCH  67  72
ENDBRANCH  64  67
ENDBRANCH  62  63
ENDBRANCH  60  62
ENDBRANCH  57  58
BRANCH  57  84
ATOM     84  CB  VAL     7      57.602  38.735  46.952  1.00  0.00     0.029 C 
ATOM     85  CG2 VAL     7      58.010  37.258  46.868  1.00  0.00     0.002 C 
ATOM     86  CG1 VAL     7      57.430  39.076  48.437  1.00  0.00     0.002 C 
ENDBRANCH  57  84
ENDBRANCH  55  57
ENDBRANCH  45  53
ENDBRANCH  43  45
ENDBRANCH  40  41
BRANCH  40  87
ATOM     87  CB  SER     5      59.654  43.369  40.581  1.00  0.00     0.169 C 
BRANCH  87  88
ATOM     88  OG  SER     5      59.016  44.633  40.788  1.00  0.00    -0.380 OA
ATOM     89  HG  SER     5      59.701  45.344  40.953  1.00 99.99     0.211 HD
ENDBRANCH  87  88
ENDBRANCH  40  87
ENDBRANCH  38  40
ENDBRANCH  35  36
BRANCH  35  90
ATOM     90  CB  ASP     4      62.734  38.844  41.818  1.00  0.00     0.129 C 
BRANCH  90  91
ATOM     91  CG  ASP     4      61.440  38.158  42.291  1.00  0.00     0.188 C 
ATOM     92  OD1 ASP     4      60.778  38.685  43.211  1.00  0.00    -0.647 OA
ATOM     93  OD2 ASP     4      61.206  37.028  41.816  1.00  0.00    -0.647 OA
ENDBRANCH  90  91
ENDBRANCH  35  90
ENDBRANCH  33  35
ENDBRANCH  30  31
BRANCH  30  94
ATOM     94  CB  THR     3      65.795  42.005  45.034  1.00  0.00     0.140 C 
ATOM     95  CG2 THR     3      65.769  41.716  46.537  1.00  0.00     0.034 C 
BRANCH  94  96
ATOM     96  OG1 THR     3      66.252  40.880  44.276  1.00  0.00    -0.382 OA
ATOM     97  HG1 THR     3      67.049  41.159  43.732  1.00 99.99     0.210 HD
ENDBRANCH  94  96
ENDBRANCH  30  94
ENDBRANCH  28  30
ENDBRANCH  17  26
ENDBRANCH  15  17
ENDBRANCH   5  13
ENDBRANCH   1   5
TORSDOF 41
ENDMDL
MODEL 7
REMARK VINA RESULT:      -4.8      3.152      6.618
REMARK WARNING: 32 MAX_TORS EXCEEDED!!!
REMARK  41 active torsions:
REMARK  status: ('A' for Active; 'I' for Inactive)
REMARK    1  A    between atoms: N_1  and  CA_2 
REMARK    2  A    between atoms: CA_2  and  CB_5 
REMARK    3  A    between atoms: CA_2  and  C_3 
REMARK       I    between atoms: C_3  and  N_15 
REMARK    4  A    between atoms: CB_5  and  CG_6 
REMARK    5  A    between atoms: N_15  and  CA_16 
REMARK    6  A    between atoms: CA_16  and  CB_19 
REMARK    7  A    between atoms: CA_16  and  C_17 
REMARK       I    between atoms: C_17  and  N_28 
REMARK    8  A    between atoms: CB_19  and  CG_20 
REMARK    9  A    between atoms: CG_20  and  CD_21 
REMARK   10  A    between atoms: CD_21  and  CE_22 
REMARK   11  A    between atoms: CE_22  and  NZ_23 
REMARK   12  A    between atoms: N_28  and  CA_29 
REMARK   13  A    between atoms: CA_29  and  C_30 
REMARK   14  A    between atoms: CA_29  and  CB_32 
REMARK       I    between atoms: C_30  and  N_37 
REMARK   15  A    between atoms: CB_32  and  OG1_33 
REMARK   16  A    between atoms: N_37  and  CA_38 
REMARK   17  A    between atoms: CA_38  and  C_39 
REMARK   18  A    between atoms: CA_38  and  CB_41 
REMARK       I    between atoms: C_39  and  N_46 
REMARK   19  A    between atoms: CB_41  and  CG_42 
REMARK   20  A    between atoms: N_46  and  CA_47 
REMARK   21  A    between atoms: CA_47  and  C_48 
REMARK   22  A    between atoms: CA_47  and  CB_50 
REMARK       I    between atoms: C_48  and  N_54 
REMARK   23  A    between atoms: CB_50  and  OG_51 
REMARK   24  A    between atoms: N_54  and  CA_55 
REMARK   25  A    between atoms: CA_55  and  CB_58 
REMARK   26  A    between atoms: CA_55  and  C_56 
REMARK       I    between atoms: C_56  and  N_66 
REMARK   27  A    between atoms: CB_58  and  CG_59 
REMARK   28  A    between atoms: N_66  and  CA_67 
REMARK   29  A    between atoms: CA_67  and  C_68 
REMARK   30  A    between atoms: CA_67  and  CB_70 
REMARK       I    between atoms: C_68  and  N_74 
REMARK   31  A    between atoms: N_74  and  CA_75 
REMARK   32  A    between atoms: CA_75  and  C_76 
REMARK       I    between atoms: C_76  and  N_79 
REMARK   33  A    between atoms: N_79  and  CA_80 
REMARK   34  A    between atoms: CA_80  and  CB_83 
REMARK   35  A    between atoms: CA_80  and  C_81 
REMARK       I    between atoms: C_81  and  N_88 
REMARK   36  A    between atoms: CB_83  and  CG_84 
REMARK   37  A    between atoms: N_88  and  CA_89 
REMARK   38  A    between atoms: CA_89  and  C_90 
REMARK   39  A    between atoms: CA_89  and  CB_92 
REMARK   40  A    between atoms: CB_92  and  CG_93 
REMARK   41  A    between atoms: CG_93  and  SD_94 
ROOT
ATOM      1  N   HIS     1      63.327  42.223  50.489  1.00  0.00    -0.057 N 
ATOM      2  H1  HIS     1      63.023  41.334  50.840  1.00 99.99     0.276 HD
ATOM      3  H2  HIS     1      63.260  42.212  49.507  1.00 99.99     0.276 HD
ATOM      4  H3  HIS     1      64.281  42.347  50.692  1.00 99.99     0.276 HD
ENDROOT
BRANCH   1   5
ATOM      5  CA  HIS     1      62.462  43.254  51.105  1.00  0.00     0.261 C 
BRANCH   5   6
ATOM      6  CB  HIS     1      62.085  44.268  50.003  1.00  0.00     0.087 C 
BRANCH   6   7
ATOM      7  CG  HIS     1      63.163  45.292  49.610  1.00  0.00     0.080 A 
ATOM      8  CD2 HIS     1      62.988  46.591  49.360  1.00  0.00     0.089 A 
ATOM      9  NE2 HIS     1      64.186  47.165  49.243  1.00  0.00    -0.334 N 
ATOM     10  HD1 HIS     1      64.371  48.116  48.999  1.00 99.99     0.168 HD
ATOM     11  CE1 HIS     1      65.105  46.225  49.422  1.00  0.00     0.175 A 
ATOM     12  ND1 HIS     1      64.471  45.075  49.625  1.00  0.00    -0.229 NA
ENDBRANCH   6   7
ENDBRANCH   5   6
BRANCH   5  13
ATOM     13  C   HIS     1      61.249  42.538  51.751  1.00  0.00     0.259 C 
ATOM     14  O   HIS     1      61.044  42.645  52.963  1.00  0.00    -0.271 OA
ATOM     15  N   LYS     2      60.340  42.015  50.931  1.00  0.00    -0.338 N 
ATOM     16  H   LYS     2      60.558  41.824  49.975  1.00 99.99     0.164 HD
BRANCH  15  17
ATOM     17  CA  LYS     2      59.119  41.347  51.425  1.00  0.00     0.159 C 
BRANCH  17  18
ATOM     18  CB  LYS     2      57.897  42.190  51.069  1.00  0.00     0.032 C 
BRANCH  18  19
ATOM     19  CG  LYS     2      57.151  42.860  52.223  1.00  0.00     0.004 C 
BRANCH  19  20
ATOM     20  CD  LYS     2      55.790  43.231  51.640  1.00  0.00     0.032 C 
BRANCH  20  21
ATOM     21  CE  LYS     2      55.683  43.143  50.121  1.00  0.00     0.206 C 
BRANCH  21  22
ATOM     22  NZ  LYS     2      54.282  42.847  49.790  1.00  0.00    -0.064 N 
ATOM     23  HZ1 LYS     2      53.761  43.697  49.707  1.00 99.99     0.275 HD
ATOM     24  HZ2 LYS     2      54.242  42.343  48.928  1.00 99.99     0.275 HD
ATOM     25  HZ3 LYS     2      53.887  42.284  50.517  1.00 99.99     0.275 HD
ENDBRANCH  21  22
ENDBRANCH  20  21
ENDBRANCH  19  20
ENDBRANCH  18  19
ENDBRANCH  17  18
BRANCH  17  26
ATOM     26  C   LYS     2      58.932  39.961  50.781  1.00  0.00     0.251 C 
ATOM     27  O   LYS     2      59.847  39.135  50.773  1.00  0.00    -0.271 OA
ATOM     28  N   THR     3      57.870  39.845  49.987  1.00  0.00    -0.336 N 
ATOM     29  H   THR     3      57.230  40.597  49.817  1.00 99.99     0.164 HD
BRANCH  28  30
ATOM     30  CA  THR     3      57.527  38.581  49.295  1.00  0.00     0.186 C 
BRANCH  30  31
ATOM     31  C   THR     3      57.924  38.517  47.812  1.00  0.00     0.253 C 
ATOM     32  O   THR     3      58.938  37.899  47.497  1.00  0.00    -0.270 OA
ATOM     33  N   ASP     4      57.266  39.340  46.989  1.00  0.00    -0.337 N 
ATOM     34  H   ASP     4      56.505  39.882  47.338  1.00 99.99     0.164 HD
BRANCH  33  35
ATOM     35  CA  ASP     4      57.543  39.488  45.541  1.00  0.00     0.170 C 
BRANCH  35  36
ATOM     36  C   ASP     4      57.789  40.947  45.102  1.00  0.00     0.252 C 
ATOM     37  O   ASP     4      58.205  41.203  43.973  1.00  0.00    -0.271 OA
ATOM     38  N   SER     5      57.825  41.812  46.112  1.00  0.00    -0.336 N 
ATOM     39  H   SER     5      57.555  41.533  47.035  1.00 99.99     0.164 HD
BRANCH  38  40
ATOM     40  CA  SER     5      58.072  43.261  45.995  1.00  0.00     0.189 C 
BRANCH  40  41
ATOM     41  C   SER     5      59.451  43.570  45.397  1.00  0.00     0.254 C 
ATOM     42  O   SER     5      59.537  44.305  44.417  1.00  0.00    -0.270 OA
ATOM     43  N   PHE     6      60.495  42.903  45.895  1.00  0.00    -0.337 N 
ATOM     44  H   PHE     6      60.394  42.162  46.561  1.00 99.99     0.164 HD
BRANCH  43  45
ATOM     45  CA  PHE     6      61.878  43.164  45.444  1.00  0.00     0.164 C 
BRANCH  45  46
ATOM     46  CB  PHE     6      62.855  42.923  46.601  1.00  0.00     0.056 C 
BRANCH  46  47
ATOM     47  CG  PHE     6      63.155  41.436  46.798  1.00  0.00    -0.044 A 
ATOM     48  CD1 PHE     6      62.208  40.588  47.364  1.00  0.00     0.008 A 
ATOM     49  CE1 PHE     6      62.486  39.235  47.514  1.00  0.00     0.001 A 
ATOM     50  CZ  PHE     6      63.711  38.727  47.100  1.00  0.00     0.000 A 
ATOM     51  CE2 PHE     6      64.652  39.571  46.524  1.00  0.00     0.001 A 
ATOM     52  CD2 PHE     6      64.378  40.926  46.379  1.00  0.00     0.008 A 
ENDBRANCH  46  47
ENDBRANCH  45  46
BRANCH  45  53
ATOM     53  C   PHE     6      62.269  42.394  44.167  1.00  0.00     0.251 C 
ATOM     54  O   PHE     6      63.250  42.754  43.520  1.00  0.00    -0.271 OA
ATOM     55  N   VAL     7      61.394  41.494  43.718  1.00  0.00    -0.338 N 
ATOM     56  H   VAL     7      60.563  41.260  44.232  1.00 99.99     0.164 HD
BRANCH  55  57
ATOM     57  CA  VAL     7      61.576  40.719  42.466  1.00  0.00     0.159 C 
BRANCH  57  58
ATOM     58  C   VAL     7      60.425  40.969  41.458  1.00  0.00     0.251 C 
ATOM     59  O   VAL     7      60.235  40.183  40.533  1.00  0.00    -0.271 OA
ATOM     60  N   GLY     8      59.673  42.061  41.671  1.00  0.00    -0.336 N 
ATOM     61  H   GLY     8      59.694  42.586  42.530  1.00 99.99     0.164 HD
BRANCH  60  62
ATOM     62  CA  GLY     8      58.641  42.550  40.726  1.00  0.00     0.189 C 
BRANCH  62  63
ATOM     63  C   GLY     8      59.118  43.577  39.678  1.00  0.00     0.253 C 
ATOM     64  N   LEU     9      59.284  43.121  38.435  1.00  0.00    -0.337 N 
ATOM     65  H   LEU     9      59.223  42.143  38.240  1.00 99.99     0.164 HD
ATOM     66  O   GLY     8      59.484  44.693  40.038  1.00  0.00    -0.270 OA
BRANCH  64  67
ATOM     67  CA  LEU     9      59.735  43.944  37.288  1.00  0.00     0.159 C 
BRANCH  67  68
ATOM     68  CB  LEU     9      61.245  43.768  37.083  1.00  0.00     0.032 C 
BRANCH  68  69
ATOM     69  CG  LEU     9      61.702  42.308  36.981  1.00  0.00     0.002 C 
ATOM     70  CD2 LEU     9      62.636  41.932  38.135  1.00  0.00     0.000 C 
ATOM     71  CD1 LEU     9      62.429  42.103  35.650  1.00  0.00     0.000 C 
ENDBRANCH  68  69
ENDBRANCH  67  68
BRANCH  67  72
ATOM     72  C   LEU     9      59.030  43.694  35.941  1.00  0.00     0.251 C 
ATOM     73  O   LEU     9      59.503  44.148  34.900  1.00  0.00    -0.271 OA
ATOM     74  N   MET    10      57.964  42.898  35.968  1.00  0.00    -0.336 N 
ATOM     75  H   MET    10      57.615  42.532  36.831  1.00 99.99     0.164 HD
BRANCH  74  76
ATOM     76  CA  MET    10      57.206  42.481  34.767  1.00  0.00     0.169 C 
BRANCH  76  77
ATOM     77  C   MET    10      56.001  43.398  34.487  1.00  0.00     0.206 C 
ATOM     78  O   MET    10      56.217  44.498  33.936  1.00 99.99    -0.646 OA
ATOM     79  OXT MET    10      54.877  42.946  34.795  1.00 99.99    -0.646 OA
ENDBRANCH  76  77
BRANCH  76  80
ATOM     80  CB  MET    10      56.681  41.058  34.992  1.00  0.00     0.045 C 
BRANCH  80  81
ATOM     81  CG  MET    10      57.756  39.982  35.193  1.00  0.00     0.060 C 
BRANCH  81  82
ATOM     82  SD  MET    10      57.941  39.352  36.905  1.00  0.00    -0.139 SA
ATOM     83  CE  MET    10      56.429  38.439  37.142  1.00  0.00     0.069 C 
ENDBRANCH  81  82
ENDBRANCH  80  81
ENDBRANCH  76  80
ENDBRANCH  74  76
ENDBRANCH  67  72
ENDBRANCH  64  67
ENDBRANCH  62  63
ENDBRANCH  60  62
ENDBRANCH  57  58
BRANCH  57  84
ATOM     84  CB  VAL     7      61.794  39.224  42.802  1.00  0.00     0.029 C 
ATOM     85  CG2 VAL     7      60.983  38.816  44.039  1.00  0.00     0.002 C 
ATOM     86  CG1 VAL     7      63.260  38.870  43.081  1.00  0.00     0.002 C 
ENDBRANCH  57  84
ENDBRANCH  55  57
ENDBRANCH  45  53
ENDBRANCH  43  45
ENDBRANCH  40  41
BRANCH  40  87
ATOM     87  CB  SER     5      57.975  43.918  47.378  1.00  0.00     0.169 C 
BRANCH  87  88
ATOM     88  OG  SER     5      58.969  43.397  48.266  1.00  0.00    -0.380 OA
ATOM     89  HG  SER     5      59.886  43.598  47.915  1.00 99.99     0.211 HD
ENDBRANCH  87  88
ENDBRANCH  40  87
ENDBRANCH  38  40
ENDBRANCH  35  36
BRANCH  35  90
ATOM     90  CB  ASP     4      56.447  38.793  44.701  1.00  0.00     0.129 C 
BRANCH  90  91
ATOM     91  CG  ASP     4      55.069  38.576  45.350  1.00  0.00     0.188 C 
ATOM     92  OD1 ASP     4      54.567  39.499  46.026  1.00  0.00    -0.647 OA
ATOM     93  OD2 ASP     4      54.598  37.423  45.278  1.00  0.00    -0.647 OA
ENDBRANCH  90  91
ENDBRANCH  35  90
ENDBRANCH  33  35
ENDBRANCH  30  31
BRANCH  30  94
ATOM     94  CB  THR     3      56.049  38.209  49.456  1.00  0.00     0.140 C 
ATOM     95  CG2 THR     3      55.198  39.450  49.735  1.00  0.00     0.034 C 
BRANCH  94  96
ATOM     96  OG1 THR     3      55.599  37.494  48.301  1.00  0.00    -0.382 OA
ATOM     97  HG1 THR     3      56.380  37.010  47.894  1.00 99.99     0.210 HD
ENDBRANCH  94  96
ENDBRANCH  30  94
ENDBRANCH  28  30
ENDBRANCH  17  26
ENDBRANCH  15  17
ENDBRANCH   5  13
ENDBRANCH   1   5
TORSDOF 41
ENDMDL
MODEL 8
REMARK VINA RESULT:      -4.8      3.334      9.271
REMARK WARNING: 32 MAX_TORS EXCEEDED!!!
REMARK  41 active torsions:
REMARK  status: ('A' for Active; 'I' for Inactive)
REMARK    1  A    between atoms: N_1  and  CA_2 
REMARK    2  A    between atoms: CA_2  and  CB_5 
REMARK    3  A    between atoms: CA_2  and  C_3 
REMARK       I    between atoms: C_3  and  N_15 
REMARK    4  A    between atoms: CB_5  and  CG_6 
REMARK    5  A    between atoms: N_15  and  CA_16 
REMARK    6  A    between atoms: CA_16  and  CB_19 
REMARK    7  A    between atoms: CA_16  and  C_17 
REMARK       I    between atoms: C_17  and  N_28 
REMARK    8  A    between atoms: CB_19  and  CG_20 
REMARK    9  A    between atoms: CG_20  and  CD_21 
REMARK   10  A    between atoms: CD_21  and  CE_22 
REMARK   11  A    between atoms: CE_22  and  NZ_23 
REMARK   12  A    between atoms: N_28  and  CA_29 
REMARK   13  A    between atoms: CA_29  and  C_30 
REMARK   14  A    between atoms: CA_29  and  CB_32 
REMARK       I    between atoms: C_30  and  N_37 
REMARK   15  A    between atoms: CB_32  and  OG1_33 
REMARK   16  A    between atoms: N_37  and  CA_38 
REMARK   17  A    between atoms: CA_38  and  C_39 
REMARK   18  A    between atoms: CA_38  and  CB_41 
REMARK       I    between atoms: C_39  and  N_46 
REMARK   19  A    between atoms: CB_41  and  CG_42 
REMARK   20  A    between atoms: N_46  and  CA_47 
REMARK   21  A    between atoms: CA_47  and  C_48 
REMARK   22  A    between atoms: CA_47  and  CB_50 
REMARK       I    between atoms: C_48  and  N_54 
REMARK   23  A    between atoms: CB_50  and  OG_51 
REMARK   24  A    between atoms: N_54  and  CA_55 
REMARK   25  A    between atoms: CA_55  and  CB_58 
REMARK   26  A    between atoms: CA_55  and  C_56 
REMARK       I    between atoms: C_56  and  N_66 
REMARK   27  A    between atoms: CB_58  and  CG_59 
REMARK   28  A    between atoms: N_66  and  CA_67 
REMARK   29  A    between atoms: CA_67  and  C_68 
REMARK   30  A    between atoms: CA_67  and  CB_70 
REMARK       I    between atoms: C_68  and  N_74 
REMARK   31  A    between atoms: N_74  and  CA_75 
REMARK   32  A    between atoms: CA_75  and  C_76 
REMARK       I    between atoms: C_76  and  N_79 
REMARK   33  A    between atoms: N_79  and  CA_80 
REMARK   34  A    between atoms: CA_80  and  CB_83 
REMARK   35  A    between atoms: CA_80  and  C_81 
REMARK       I    between atoms: C_81  and  N_88 
REMARK   36  A    between atoms: CB_83  and  CG_84 
REMARK   37  A    between atoms: N_88  and  CA_89 
REMARK   38  A    between atoms: CA_89  and  C_90 
REMARK   39  A    between atoms: CA_89  and  CB_92 
REMARK   40  A    between atoms: CB_92  and  CG_93 
REMARK   41  A    between atoms: CG_93  and  SD_94 
ROOT
ATOM      1  N   HIS     1      63.036  41.483  54.670  1.00  0.00    -0.057 N 
ATOM      2  H1  HIS     1      62.651  41.593  55.590  1.00 99.99     0.276 HD
ATOM      3  H2  HIS     1      63.034  42.359  54.222  1.00 99.99     0.276 HD
ATOM      4  H3  HIS     1      62.446  40.907  54.135  1.00 99.99     0.276 HD
ENDROOT
BRANCH   1   5
ATOM      5  CA  HIS     1      64.399  40.931  54.831  1.00  0.00     0.261 C 
BRANCH   5   6
ATOM      6  CB  HIS     1      64.553  40.478  56.299  1.00  0.00     0.087 C 
BRANCH   6   7
ATOM      7  CG  HIS     1      65.184  41.490  57.269  1.00  0.00     0.080 A 
ATOM      8  CD2 HIS     1      64.972  41.588  58.583  1.00  0.00     0.089 A 
ATOM      9  NE2 HIS     1      65.845  42.459  59.090  1.00  0.00    -0.334 N 
ATOM     10  HD1 HIS     1      65.888  42.780  60.035  1.00 99.99     0.168 HD
ATOM     11  CE1 HIS     1      66.601  42.902  58.093  1.00  0.00     0.175 A 
ATOM     12  ND1 HIS     1      66.177  42.319  56.977  1.00  0.00    -0.229 NA
ENDBRANCH   6   7
ENDBRANCH   5   6
BRANCH   5  13
ATOM     13  C   HIS     1      64.580  39.794  53.793  1.00  0.00     0.259 C 
ATOM     14  O   HIS     1      64.631  38.619  54.168  1.00  0.00    -0.271 OA
ATOM     15  N   LYS     2      64.446  40.113  52.507  1.00  0.00    -0.338 N 
ATOM     16  H   LYS     2      64.523  41.060  52.201  1.00 99.99     0.164 HD
BRANCH  15  17
ATOM     17  CA  LYS     2      64.551  39.110  51.428  1.00  0.00     0.159 C 
BRANCH  17  18
ATOM     18  CB  LYS     2      63.309  39.182  50.543  1.00  0.00     0.032 C 
BRANCH  18  19
ATOM     19  CG  LYS     2      61.955  38.992  51.225  1.00  0.00     0.004 C 
BRANCH  19  20
ATOM     20  CD  LYS     2      61.337  37.781  50.529  1.00  0.00     0.032 C 
BRANCH  20  21
ATOM     21  CE  LYS     2      61.793  36.424  51.054  1.00  0.00     0.206 C 
BRANCH  21  22
ATOM     22  NZ  LYS     2      60.597  35.691  51.492  1.00  0.00    -0.064 N 
ATOM     23  HZ1 LYS     2      60.465  34.877  50.926  1.00 99.99     0.275 HD
ATOM     24  HZ2 LYS     2      60.700  35.422  52.449  1.00 99.99     0.275 HD
ATOM     25  HZ3 LYS     2      59.799  36.289  51.405  1.00 99.99     0.275 HD
ENDBRANCH  21  22
ENDBRANCH  20  21
ENDBRANCH  19  20
ENDBRANCH  18  19
ENDBRANCH  17  18
BRANCH  17  26
ATOM     26  C   LYS     2      65.776  39.369  50.533  1.00  0.00     0.251 C 
ATOM     27  O   LYS     2      66.905  39.481  51.016  1.00  0.00    -0.271 OA
ATOM     28  N   THR     3      65.498  39.765  49.294  1.00  0.00    -0.336 N 
ATOM     29  H   THR     3      64.562  39.886  48.955  1.00 99.99     0.164 HD
BRANCH  28  30
ATOM     30  CA  THR     3      66.552  40.047  48.290  1.00  0.00     0.186 C 
BRANCH  30  31
ATOM     31  C   THR     3      67.022  41.508  48.227  1.00  0.00     0.253 C 
ATOM     32  O   THR     3      68.228  41.743  48.242  1.00  0.00    -0.270 OA
ATOM     33  N   ASP     4      66.078  42.440  48.400  1.00  0.00    -0.337 N 
ATOM     34  H   ASP     4      65.121  42.166  48.471  1.00 99.99     0.164 HD
BRANCH  33  35
ATOM     35  CA  ASP     4      66.329  43.900  48.447  1.00  0.00     0.170 C 
BRANCH  35  36
ATOM     36  C   ASP     4      65.297  44.680  49.289  1.00  0.00     0.252 C 
ATOM     37  O   ASP     4      65.581  45.771  49.780  1.00  0.00    -0.271 OA
ATOM     38  N   SER     5      64.260  43.945  49.681  1.00  0.00    -0.336 N 
ATOM     39  H   SER     5      64.115  43.025  49.314  1.00 99.99     0.164 HD
BRANCH  38  40
ATOM     40  CA  SER     5      63.140  44.415  50.517  1.00  0.00     0.189 C 
BRANCH  40  41
ATOM     41  C   SER     5      62.334  43.255  51.116  1.00  0.00     0.254 C 
ATOM     42  O   SER     5      62.892  42.444  51.851  1.00  0.00    -0.270 OA
ATOM     43  N   PHE     6      61.077  43.103  50.692  1.00  0.00    -0.337 N 
ATOM     44  H   PHE     6      60.689  43.649  49.948  1.00 99.99     0.164 HD
BRANCH  43  45
ATOM     45  CA  PHE     6      60.186  42.062  51.245  1.00  0.00     0.164 C 
BRANCH  45  46
ATOM     46  CB  PHE     6      59.690  42.487  52.632  1.00  0.00     0.056 C 
BRANCH  46  47
ATOM     47  CG  PHE     6      59.054  41.323  53.395  1.00  0.00    -0.044 A 
ATOM     48  CD1 PHE     6      57.674  41.248  53.556  1.00  0.00     0.008 A 
ATOM     49  CE1 PHE     6      57.109  40.172  54.231  1.00  0.00     0.001 A 
ATOM     50  CZ  PHE     6      57.923  39.171  54.746  1.00  0.00     0.000 A 
ATOM     51  CE2 PHE     6      59.300  39.240  54.575  1.00  0.00     0.001 A 
ATOM     52  CD2 PHE     6      59.866  40.318  53.907  1.00  0.00     0.008 A 
ENDBRANCH  46  47
ENDBRANCH  45  46
BRANCH  45  53
ATOM     53  C   PHE     6      59.033  41.667  50.299  1.00  0.00     0.251 C 
ATOM     54  O   PHE     6      59.159  40.686  49.570  1.00  0.00    -0.271 OA
ATOM     55  N   VAL     7      58.033  42.540  50.175  1.00  0.00    -0.338 N 
ATOM     56  H   VAL     7      57.983  43.372  50.736  1.00 99.99     0.164 HD
BRANCH  55  57
ATOM     57  CA  VAL     7      56.884  42.354  49.254  1.00  0.00     0.159 C 
BRANCH  57  58
ATOM     58  C   VAL     7      56.941  43.335  48.055  1.00  0.00     0.251 C 
ATOM     59  O   VAL     7      56.111  44.237  47.957  1.00  0.00    -0.271 OA
ATOM     60  N   GLY     8      57.933  43.140  47.171  1.00  0.00    -0.336 N 
ATOM     61  H   GLY     8      58.723  42.544  47.353  1.00 99.99     0.164 HD
BRANCH  60  62
ATOM     62  CA  GLY     8      58.049  43.869  45.885  1.00  0.00     0.189 C 
BRANCH  62  63
ATOM     63  C   GLY     8      59.139  43.360  44.918  1.00  0.00     0.253 C 
ATOM     64  N   LEU     9      59.696  42.186  45.218  1.00  0.00    -0.337 N 
ATOM     65  H   LEU     9      59.499  41.738  46.090  1.00 99.99     0.164 HD
ATOM     66  O   GLY     8      59.566  44.100  44.036  1.00  0.00    -0.270 OA
BRANCH  64  67
ATOM     67  CA  LEU     9      60.756  41.526  44.420  1.00  0.00     0.159 C 
BRANCH  67  68
ATOM     68  CB  LEU     9      61.940  41.164  45.327  1.00  0.00     0.032 C 
BRANCH  68  69
ATOM     69  CG  LEU     9      61.544  40.788  46.759  1.00  0.00     0.002 C 
ATOM     70  CD2 LEU     9      62.389  41.544  47.790  1.00  0.00     0.000 C 
ATOM     71  CD1 LEU     9      61.734  39.282  46.952  1.00  0.00     0.000 C 
ENDBRANCH  68  69
ENDBRANCH  67  68
BRANCH  67  72
ATOM     72  C   LEU     9      60.346  40.268  43.632  1.00  0.00     0.251 C 
ATOM     73  O   LEU     9      61.196  39.590  43.058  1.00  0.00    -0.271 OA
ATOM     74  N   MET    10      59.062  39.923  43.695  1.00  0.00    -0.336 N 
ATOM     75  H   MET    10      58.399  40.488  44.184  1.00 99.99     0.164 HD
BRANCH  74  76
ATOM     76  CA  MET    10      58.496  38.705  43.069  1.00  0.00     0.169 C 
BRANCH  76  77
ATOM     77  C   MET    10      57.831  38.999  41.711  1.00  0.00     0.206 C 
ATOM     78  O   MET    10      58.556  39.410  40.780  1.00 99.99    -0.646 OA
ATOM     79  OXT MET    10      56.607  38.757  41.630  1.00 99.99    -0.646 OA
ENDBRANCH  76  77
BRANCH  76  80
ATOM     80  CB  MET    10      57.432  38.126  44.008  1.00  0.00     0.045 C 
BRANCH  80  81
ATOM     81  CG  MET    10      57.040  39.018  45.193  1.00  0.00     0.060 C 
BRANCH  81  82
ATOM     82  SD  MET    10      55.387  39.803  45.086  1.00  0.00    -0.139 SA
ATOM     83  CE  MET    10      55.018  40.152  46.795  1.00  0.00     0.069 C 
ENDBRANCH  81  82
ENDBRANCH  80  81
ENDBRANCH  76  80
ENDBRANCH  74  76
ENDBRANCH  67  72
ENDBRANCH  64  67
ENDBRANCH  62  63
ENDBRANCH  60  62
ENDBRANCH  57  58
BRANCH  57  84
ATOM     84  CB  VAL     7      55.559  42.421  50.050  1.00  0.00     0.029 C 
ATOM     85  CG2 VAL     7      55.701  43.330  51.277  1.00  0.00     0.002 C 
ATOM     86  CG1 VAL     7      55.080  41.053  50.550  1.00  0.00     0.002 C 
ENDBRANCH  57  84
ENDBRANCH  55  57
ENDBRANCH  45  53
ENDBRANCH  43  45
ENDBRANCH  40  41
BRANCH  40  87
ATOM     87  CB  SER     5      62.197  45.291  49.680  1.00  0.00     0.169 C 
BRANCH  87  88
ATOM     88  OG  SER     5      62.657  46.645  49.635  1.00  0.00    -0.380 OA
ATOM     89  HG  SER     5      63.398  46.781  50.296  1.00 99.99     0.211 HD
ENDBRANCH  87  88
ENDBRANCH  40  87
ENDBRANCH  38  40
ENDBRANCH  35  36
BRANCH  35  90
ATOM     90  CB  ASP     4      66.485  44.474  47.020  1.00  0.00     0.129 C 
BRANCH  90  91
ATOM     91  CG  ASP     4      65.945  43.642  45.844  1.00  0.00     0.188 C 
ATOM     92  OD1 ASP     4      64.711  43.598  45.651  1.00  0.00    -0.647 OA
ATOM     93  OD2 ASP     4      66.776  42.939  45.234  1.00  0.00    -0.647 OA
ENDBRANCH  90  91
ENDBRANCH  35  90
ENDBRANCH  33  35
ENDBRANCH  30  31
BRANCH  30  94
ATOM     94  CB  THR     3      66.169  39.561  46.889  1.00  0.00     0.140 C 
ATOM     95  CG2 THR     3      65.464  38.204  46.952  1.00  0.00     0.034 C 
BRANCH  94  96
ATOM     96  OG1 THR     3      65.374  40.552  46.230  1.00  0.00    -0.382 OA
ATOM     97  HG1 THR     3      64.715  40.091  45.628  1.00 99.99     0.210 HD
ENDBRANCH  94  96
ENDBRANCH  30  94
ENDBRANCH  28  30
ENDBRANCH  17  26
ENDBRANCH  15  17
ENDBRANCH   5  13
ENDBRANCH   1   5
TORSDOF 41
ENDMDL
MODEL 9
REMARK VINA RESULT:      -4.8      3.599      7.273
REMARK WARNING: 32 MAX_TORS EXCEEDED!!!
REMARK  41 active torsions:
REMARK  status: ('A' for Active; 'I' for Inactive)
REMARK    1  A    between atoms: N_1  and  CA_2 
REMARK    2  A    between atoms: CA_2  and  CB_5 
REMARK    3  A    between atoms: CA_2  and  C_3 
REMARK       I    between atoms: C_3  and  N_15 
REMARK    4  A    between atoms: CB_5  and  CG_6 
REMARK    5  A    between atoms: N_15  and  CA_16 
REMARK    6  A    between atoms: CA_16  and  CB_19 
REMARK    7  A    between atoms: CA_16  and  C_17 
REMARK       I    between atoms: C_17  and  N_28 
REMARK    8  A    between atoms: CB_19  and  CG_20 
REMARK    9  A    between atoms: CG_20  and  CD_21 
REMARK   10  A    between atoms: CD_21  and  CE_22 
REMARK   11  A    between atoms: CE_22  and  NZ_23 
REMARK   12  A    between atoms: N_28  and  CA_29 
REMARK   13  A    between atoms: CA_29  and  C_30 
REMARK   14  A    between atoms: CA_29  and  CB_32 
REMARK       I    between atoms: C_30  and  N_37 
REMARK   15  A    between atoms: CB_32  and  OG1_33 
REMARK   16  A    between atoms: N_37  and  CA_38 
REMARK   17  A    between atoms: CA_38  and  C_39 
REMARK   18  A    between atoms: CA_38  and  CB_41 
REMARK       I    between atoms: C_39  and  N_46 
REMARK   19  A    between atoms: CB_41  and  CG_42 
REMARK   20  A    between atoms: N_46  and  CA_47 
REMARK   21  A    between atoms: CA_47  and  C_48 
REMARK   22  A    between atoms: CA_47  and  CB_50 
REMARK       I    between atoms: C_48  and  N_54 
REMARK   23  A    between atoms: CB_50  and  OG_51 
REMARK   24  A    between atoms: N_54  and  CA_55 
REMARK   25  A    between atoms: CA_55  and  CB_58 
REMARK   26  A    between atoms: CA_55  and  C_56 
REMARK       I    between atoms: C_56  and  N_66 
REMARK   27  A    between atoms: CB_58  and  CG_59 
REMARK   28  A    between atoms: N_66  and  CA_67 
REMARK   29  A    between atoms: CA_67  and  C_68 
REMARK   30  A    between atoms: CA_67  and  CB_70 
REMARK       I    between atoms: C_68  and  N_74 
REMARK   31  A    between atoms: N_74  and  CA_75 
REMARK   32  A    between atoms: CA_75  and  C_76 
REMARK       I    between atoms: C_76  and  N_79 
REMARK   33  A    between atoms: N_79  and  CA_80 
REMARK   34  A    between atoms: CA_80  and  CB_83 
REMARK   35  A    between atoms: CA_80  and  C_81 
REMARK       I    between atoms: C_81  and  N_88 
REMARK   36  A    between atoms: CB_83  and  CG_84 
REMARK   37  A    between atoms: N_88  and  CA_89 
REMARK   38  A    between atoms: CA_89  and  C_90 
REMARK   39  A    between atoms: CA_89  and  CB_92 
REMARK   40  A    between atoms: CB_92  and  CG_93 
REMARK   41  A    between atoms: CG_93  and  SD_94 
ROOT
ATOM      1  N   HIS     1      56.016  42.403  48.852  1.00  0.00    -0.057 N 
ATOM      2  H1  HIS     1      56.852  42.337  49.401  1.00 99.99     0.276 HD
ATOM      3  H2  HIS     1      55.870  41.543  48.396  1.00 99.99     0.276 HD
ATOM      4  H3  HIS     1      56.144  43.067  48.138  1.00 99.99     0.276 HD
ENDROOT
BRANCH   1   5
ATOM      5  CA  HIS     1      54.913  42.748  49.777  1.00  0.00     0.261 C 
BRANCH   5   6
ATOM      6  CB  HIS     1      53.778  41.724  49.556  1.00  0.00     0.087 C 
BRANCH   6   7
ATOM      7  CG  HIS     1      54.092  40.536  48.631  1.00  0.00     0.080 A 
ATOM      8  CD2 HIS     1      54.124  39.244  48.961  1.00  0.00     0.089 A 
ATOM      9  NE2 HIS     1      54.245  38.524  47.845  1.00  0.00    -0.334 N 
ATOM     10  HD1 HIS     1      54.354  37.533  47.782  1.00 99.99     0.168 HD
ATOM     11  CE1 HIS     1      54.287  39.368  46.821  1.00  0.00     0.175 A 
ATOM     12  ND1 HIS     1      54.214  40.600  47.312  1.00  0.00    -0.229 NA
ENDBRANCH   6   7
ENDBRANCH   5   6
BRANCH   5  13
ATOM     13  C   HIS     1      55.484  42.763  51.218  1.00  0.00     0.259 C 
ATOM     14  O   HIS     1      55.794  43.833  51.747  1.00  0.00    -0.271 OA
ATOM     15  N   LYS     2      55.406  41.632  51.917  1.00  0.00    -0.338 N 
ATOM     16  H   LYS     2      55.271  40.754  51.463  1.00 99.99     0.164 HD
BRANCH  15  17
ATOM     17  CA  LYS     2      55.874  41.532  53.315  1.00  0.00     0.159 C 
BRANCH  17  18
ATOM     18  CB  LYS     2      55.060  40.470  54.050  1.00  0.00     0.032 C 
BRANCH  18  19
ATOM     19  CG  LYS     2      54.244  39.501  53.196  1.00  0.00     0.004 C 
BRANCH  19  20
ATOM     20  CD  LYS     2      54.168  38.222  54.028  1.00  0.00     0.032 C 
BRANCH  20  21
ATOM     21  CE  LYS     2      52.877  37.425  53.884  1.00  0.00     0.206 C 
BRANCH  21  22
ATOM     22  NZ  LYS     2      53.055  36.155  54.602  1.00  0.00    -0.064 N 
ATOM     23  HZ1 LYS     2      54.027  35.925  54.659  1.00 99.99     0.275 HD
ATOM     24  HZ2 LYS     2      52.674  36.235  55.523  1.00 99.99     0.275 HD
ATOM     25  HZ3 LYS     2      52.570  35.432  54.110  1.00 99.99     0.275 HD
ENDBRANCH  21  22
ENDBRANCH  20  21
ENDBRANCH  19  20
ENDBRANCH  18  19
ENDBRANCH  17  18
BRANCH  17  26
ATOM     26  C   LYS     2      57.354  41.119  53.387  1.00  0.00     0.251 C 
ATOM     27  O   LYS     2      58.247  41.963  53.492  1.00  0.00    -0.271 OA
ATOM     28  N   THR     3      57.610  39.865  53.021  1.00  0.00    -0.336 N 
ATOM     29  H   THR     3      56.898  39.227  52.722  1.00 99.99     0.164 HD
BRANCH  28  30
ATOM     30  CA  THR     3      58.976  39.291  53.040  1.00  0.00     0.186 C 
BRANCH  30  31
ATOM     31  C   THR     3      59.228  38.165  52.026  1.00  0.00     0.253 C 
ATOM     32  O   THR     3      58.310  37.393  51.758  1.00  0.00    -0.270 OA
ATOM     33  N   ASP     4      60.503  37.957  51.680  1.00  0.00    -0.337 N 
ATOM     34  H   ASP     4      61.212  38.576  52.011  1.00 99.99     0.164 HD
BRANCH  33  35
ATOM     35  CA  ASP     4      60.970  36.879  50.776  1.00  0.00     0.170 C 
BRANCH  35  36
ATOM     36  C   ASP     4      60.208  36.820  49.435  1.00  0.00     0.252 C 
ATOM     37  O   ASP     4      60.146  35.774  48.791  1.00  0.00    -0.271 OA
ATOM     38  N   SER     5      59.935  38.016  48.921  1.00  0.00    -0.336 N 
ATOM     39  H   SER     5      60.081  38.850  49.457  1.00 99.99     0.164 HD
BRANCH  38  40
ATOM     40  CA  SER     5      59.247  38.265  47.641  1.00  0.00     0.189 C 
BRANCH  40  41
ATOM     41  C   SER     5      60.045  39.201  46.724  1.00  0.00     0.254 C 
ATOM     42  O   SER     5      59.734  39.300  45.539  1.00  0.00    -0.270 OA
ATOM     43  N   PHE     6      61.142  39.764  47.233  1.00  0.00    -0.337 N 
ATOM     44  H   PHE     6      61.500  39.528  48.138  1.00 99.99     0.164 HD
BRANCH  43  45
ATOM     45  CA  PHE     6      61.954  40.732  46.466  1.00  0.00     0.164 C 
BRANCH  45  46
ATOM     46  CB  PHE     6      61.664  42.156  46.956  1.00  0.00     0.056 C 
BRANCH  46  47
ATOM     47  CG  PHE     6      60.539  42.820  46.159  1.00  0.00    -0.044 A 
ATOM     48  CD1 PHE     6      60.648  42.991  44.783  1.00  0.00     0.008 A 
ATOM     49  CE1 PHE     6      59.607  43.574  44.070  1.00  0.00     0.001 A 
ATOM     50  CZ  PHE     6      58.457  43.985  44.730  1.00  0.00     0.000 A 
ATOM     51  CE2 PHE     6      58.343  43.802  46.103  1.00  0.00     0.001 A 
ATOM     52  CD2 PHE     6      59.385  43.227  46.818  1.00  0.00     0.008 A 
ENDBRANCH  46  47
ENDBRANCH  45  46
BRANCH  45  53
ATOM     53  C   PHE     6      63.461  40.405  46.453  1.00  0.00     0.251 C 
ATOM     54  O   PHE     6      63.826  39.245  46.274  1.00  0.00    -0.271 OA
ATOM     55  N   VAL     7      64.289  41.374  46.843  1.00  0.00    -0.338 N 
ATOM     56  H   VAL     7      63.960  42.301  47.047  1.00 99.99     0.164 HD
BRANCH  55  57
ATOM     57  CA  VAL     7      65.758  41.207  46.961  1.00  0.00     0.159 C 
BRANCH  57  58
ATOM     58  C   VAL     7      66.188  40.888  48.416  1.00  0.00     0.251 C 
ATOM     59  O   VAL     7      67.069  41.553  48.957  1.00  0.00    -0.271 OA
ATOM     60  N   GLY     8      65.542  39.878  49.021  1.00  0.00    -0.336 N 
ATOM     61  H   GLY     8      64.694  39.473  48.662  1.00 99.99     0.164 HD
BRANCH  60  62
ATOM     62  CA  GLY     8      65.927  39.326  50.342  1.00  0.00     0.189 C 
BRANCH  62  63
ATOM     63  C   GLY     8      64.783  39.174  51.368  1.00  0.00     0.253 C 
ATOM     64  N   LEU     9      64.547  40.226  52.151  1.00  0.00    -0.337 N 
ATOM     65  H   LEU     9      65.166  41.011  52.149  1.00 99.99     0.164 HD
ATOM     66  O   GLY     8      64.263  38.075  51.544  1.00  0.00    -0.270 OA
BRANCH  64  67
ATOM     67  CA  LEU     9      63.497  40.283  53.196  1.00  0.00     0.159 C 
BRANCH  67  68
ATOM     68  CB  LEU     9      64.112  40.732  54.528  1.00  0.00     0.032 C 
BRANCH  68  69
ATOM     69  CG  LEU     9      64.899  39.639  55.259  1.00  0.00     0.002 C 
ATOM     70  CD2 LEU     9      64.112  39.086  56.452  1.00  0.00     0.000 C 
ATOM     71  CD1 LEU     9      66.226  40.221  55.751  1.00  0.00     0.000 C 
ENDBRANCH  68  69
ENDBRANCH  67  68
BRANCH  67  72
ATOM     72  C   LEU     9      62.276  41.173  52.901  1.00  0.00     0.251 C 
ATOM     73  O   LEU     9      61.556  41.564  53.818  1.00  0.00    -0.271 OA
ATOM     74  N   MET    10      62.115  41.559  51.637  1.00  0.00    -0.336 N 
ATOM     75  H   MET    10      62.729  41.236  50.917  1.00 99.99     0.164 HD
BRANCH  74  76
ATOM     76  CA  MET    10      61.048  42.477  51.176  1.00  0.00     0.169 C 
BRANCH  76  77
ATOM     77  C   MET    10      59.952  41.747  50.378  1.00  0.00     0.206 C 
ATOM     78  O   MET    10      58.860  42.331  50.214  1.00 99.99    -0.646 OA
ATOM     79  OXT MET    10      60.259  40.629  49.910  1.00 99.99    -0.646 OA
ENDBRANCH  76  77
BRANCH  76  80
ATOM     80  CB  MET    10      61.679  43.536  50.264  1.00  0.00     0.045 C 
BRANCH  80  81
ATOM     81  CG  MET    10      62.947  44.205  50.808  1.00  0.00     0.060 C 
BRANCH  81  82
ATOM     82  SD  MET    10      62.952  46.038  50.787  1.00  0.00    -0.139 SA
ATOM     83  CE  MET    10      63.829  46.401  49.278  1.00  0.00     0.069 C 
ENDBRANCH  81  82
ENDBRANCH  80  81
ENDBRANCH  76  80
ENDBRANCH  74  76
ENDBRANCH  67  72
ENDBRANCH  64  67
ENDBRANCH  62  63
ENDBRANCH  60  62
ENDBRANCH  57  58
BRANCH  57  84
ATOM     84  CB  VAL     7      66.476  42.437  46.356  1.00  0.00     0.029 C 
ATOM     85  CG2 VAL     7      65.474  43.551  46.028  1.00  0.00     0.002 C 
ATOM     86  CG1 VAL     7      67.243  42.121  45.066  1.00  0.00     0.002 C 
ENDBRANCH  57  84
ENDBRANCH  55  57
ENDBRANCH  45  53
ENDBRANCH  43  45
ENDBRANCH  40  41
BRANCH  40  87
ATOM     87  CB  SER     5      57.869  38.890  47.904  1.00  0.00     0.169 C 
BRANCH  87  88
ATOM     88  OG  SER     5      57.951  40.318  47.940  1.00  0.00    -0.380 OA
ATOM     89  HG  SER     5      57.887  40.644  48.885  1.00 99.99     0.211 HD
ENDBRANCH  87  88
ENDBRANCH  40  87
ENDBRANCH  38  40
ENDBRANCH  35  36
BRANCH  35  90
ATOM     90  CB  ASP     4      60.984  35.518  51.510  1.00  0.00     0.129 C 
BRANCH  90  91
ATOM     91  CG  ASP     4      61.745  35.426  52.844  1.00  0.00     0.188 C 
ATOM     92  OD1 ASP     4      61.142  35.697  53.904  1.00  0.00    -0.647 OA
ATOM     93  OD2 ASP     4      62.974  35.220  52.768  1.00  0.00    -0.647 OA
ENDBRANCH  90  91
ENDBRANCH  35  90
ENDBRANCH  33  35
ENDBRANCH  30  31
BRANCH  30  94
ATOM     94  CB  THR     3      59.399  38.836  54.441  1.00  0.00     0.140 C 
ATOM     95  CG2 THR     3      58.486  37.721  54.955  1.00  0.00     0.034 C 
BRANCH  94  96
ATOM     96  OG1 THR     3      60.776  38.445  54.430  1.00  0.00    -0.382 OA
ATOM     97  HG1 THR     3      61.310  39.154  53.959  1.00 99.99     0.210 HD
ENDBRANCH  94  96
ENDBRANCH  30  94
ENDBRANCH  28  30
ENDBRANCH  17  26
ENDBRANCH  15  17
ENDBRANCH   5  13
ENDBRANCH   1   5
TORSDOF 41
ENDMDL
