MODEL 1
REMARK VINA RESULT:      -3.9      0.000      0.000
REMARK WARNING: 32 MAX_TORS EXCEEDED!!!
REMARK  82 active torsions:
REMARK  status: ('A' for Active; 'I' for Inactive)
REMARK    1  A    between atoms: N_1  and  CA_2 
REMARK    2  A    between atoms: CA_2  and  CB_5 
REMARK    3  A    between atoms: CA_2  and  C_3 
REMARK       I    between atoms: C_3  and  N_12 
REMARK    4  A    between atoms: CB_5  and  CG_6 
REMARK    5  A    between atoms: N_12  and  CA_13 
REMARK    6  A    between atoms: CA_13  and  C_14 
REMARK       I    between atoms: C_14  and  N_18 
REMARK    7  A    between atoms: N_18  and  CA_19 
REMARK    8  A    between atoms: CA_19  and  CB_22 
REMARK    9  A    between atoms: CA_19  and  C_20 
REMARK       I    between atoms: C_20  and  N_27 
REMARK   10  A    between atoms: CB_22  and  CG_23 
REMARK   11  A    between atoms: N_27  and  CA_28 
REMARK   12  A    between atoms: CA_28  and  CB_31 
REMARK   13  A    between atoms: CA_28  and  C_29 
REMARK       I    between atoms: C_29  and  N_40 
REMARK   14  A    between atoms: CB_31  and  CG_32 
REMARK   15  A    between atoms: CG_32  and  CD_33 
REMARK   16  A    between atoms: CD_33  and  CE_34 
REMARK   17  A    between atoms: CE_34  and  NZ_35 
REMARK   18  A    between atoms: N_40  and  CA_41 
REMARK   19  A    between atoms: CA_41  and  CB_44 
REMARK   20  A    between atoms: CA_41  and  C_42 
REMARK       I    between atoms: C_42  and  N_48 
REMARK   21  A    between atoms: CB_44  and  OG_45 
REMARK   22  A    between atoms: N_48  and  CA_49 
REMARK   23  A    between atoms: CA_49  and  C_50 
REMARK       I    between atoms: C_50  and  N_53 
REMARK   24  A    between atoms: N_53  and  CA_54 
REMARK   25  A    between atoms: CA_54  and  C_55 
REMARK       I    between atoms: C_55  and  N_58 
REMARK   26  A    between atoms: N_58  and  CA_59 
REMARK   27  A    between atoms: CA_59  and  CB_62 
REMARK   28  A    between atoms: CA_59  and  C_60 
REMARK       I    between atoms: C_60  and  N_74 
REMARK   29  A    between atoms: CB_62  and  CG_63 
REMARK   30  A    between atoms: N_74  and  CA_75 
REMARK   31  A    between atoms: CA_75  and  C_76 
REMARK   32  A    between atoms: CA_75  and  CB_78 
REMARK       I    between atoms: C_76  and  N_83 
REMARK   33  A    between atoms: CB_78  and  CG_79 
REMARK   34  A    between atoms: N_83  and  CA_84 
REMARK   35  A    between atoms: CA_84  and  CB_87 
REMARK   36  A    between atoms: CA_84  and  C_85 
REMARK       I    between atoms: C_85  and  N_100 
REMARK   37  A    between atoms: CB_87  and  CG_88 
REMARK   38  A    between atoms: CG_88  and  CD_89 
REMARK   39  A    between atoms: CD_89  and  NE_90 
REMARK       I    between atoms: NE_90  and  CZ_91 
REMARK       I    between atoms: CZ_91  and  NH1_92 
REMARK   40  A    between atoms: N_100  and  CA_101 
REMARK   41  A    between atoms: CA_101  and  CB_104 
REMARK   42  A    between atoms: CA_101  and  C_102 
REMARK       I    between atoms: C_102  and  N_109 
REMARK   43  A    between atoms: CB_104  and  CG_105 
REMARK   44  A    between atoms: N_109  and  CA_110 
REMARK   45  A    between atoms: CA_110  and  CB_113 
REMARK   46  A    between atoms: CA_110  and  C_111 
REMARK       I    between atoms: C_111  and  N_121 
REMARK   47  A    between atoms: CB_113  and  CG_114 
REMARK   48  A    between atoms: N_121  and  CA_122 
REMARK   49  A    between atoms: CA_122  and  C_123 
REMARK       I    between atoms: C_123  and  N_126 
REMARK   50  A    between atoms: N_126  and  CA_127 
REMARK   51  A    between atoms: CA_127  and  CB_130 
REMARK   52  A    between atoms: CA_127  and  C_128 
REMARK       I    between atoms: C_128  and  N_135 
REMARK   53  A    between atoms: CB_130  and  CG_131 
REMARK   54  A    between atoms: N_135  and  CA_136 
REMARK   55  A    between atoms: CA_136  and  CB_139 
REMARK   56  A    between atoms: CA_136  and  C_137 
REMARK       I    between atoms: C_137  and  N_148 
REMARK   57  A    between atoms: CB_139  and  CG_140 
REMARK   58  A    between atoms: CG_140  and  CD_141 
REMARK   59  A    between atoms: CD_141  and  CE_142 
REMARK   60  A    between atoms: CE_142  and  NZ_143 
REMARK   61  A    between atoms: N_148  and  CA_149 
REMARK   62  A    between atoms: CA_149  and  CB_152 
REMARK   63  A    between atoms: CA_149  and  C_150 
REMARK       I    between atoms: C_150  and  N_157 
REMARK   64  A    between atoms: CB_152  and  CG_153 
REMARK   65  A    between atoms: N_157  and  CA_158 
REMARK   66  A    between atoms: CA_158  and  C_159 
REMARK   67  A    between atoms: CA_158  and  CB_161 
REMARK       I    between atoms: C_159  and  N_170 
REMARK   68  A    between atoms: CB_161  and  CG_162 
REMARK   69  A    between atoms: CG_162  and  CD_163 
REMARK   70  A    between atoms: CD_163  and  CE_164 
REMARK   71  A    between atoms: CE_164  and  NZ_165 
REMARK   72  A    between atoms: N_170  and  CA_171 
REMARK   73  A    between atoms: CA_171  and  CB_174 
REMARK   74  A    between atoms: CA_171  and  C_172 
REMARK       I    between atoms: C_172  and  N_183 
REMARK   75  A    between atoms: CB_174  and  CG_175 
REMARK   76  A    between atoms: CG_175  and  CD_176 
REMARK   77  A    between atoms: CD_176  and  CE_177 
REMARK   78  A    between atoms: CE_177  and  NZ_178 
REMARK   79  A    between atoms: N_183  and  CA_184 
REMARK   80  A    between atoms: CA_184  and  CB_187 
REMARK   81  A    between atoms: CA_184  and  C_185 
REMARK   82  A    between atoms: CB_187  and  CG_188 
ROOT
ATOM      1  N   LEU     1      46.783  38.671  49.457  1.00  0.00    -0.058 N 
ATOM      2  H1  LEU     1      47.123  39.130  48.641  1.00 99.99     0.276 HD
ATOM      3  H2  LEU     1      46.017  38.096  49.230  1.00 99.99     0.276 HD
ATOM      4  H3  LEU     1      46.418  39.354  50.079  1.00 99.99     0.276 HD
ENDROOT
BRANCH   1   5
ATOM      5  CA  LEU     1      47.893  37.910  50.095  1.00  0.00     0.255 C 
BRANCH   5   6
ATOM      6  CB  LEU     1      47.390  36.574  50.676  1.00  0.00     0.040 C 
BRANCH   6   7
ATOM      7  CG  LEU     1      46.961  36.639  52.156  1.00  0.00     0.002 C 
ATOM      8  CD2 LEU     1      47.631  37.831  52.843  1.00  0.00     0.000 C 
ATOM      9  CD1 LEU     1      47.313  35.356  52.919  1.00  0.00     0.000 C 
ENDBRANCH   6   7
ENDBRANCH   5   6
BRANCH   5  10
ATOM     10  C   LEU     1      49.079  37.788  49.118  1.00  0.00     0.259 C 
ATOM     11  N   ALA     2      49.369  36.573  48.623  1.00  0.00    -0.338 N 
ATOM     12  H   ALA     2      48.942  35.760  49.016  1.00 99.99     0.164 HD
ATOM     13  O   LEU     1      49.557  38.831  48.669  1.00  0.00    -0.271 OA
BRANCH  11  14
ATOM     14  CA  ALA     2      50.351  36.248  47.555  1.00  0.00     0.159 C 
ATOM     15  CB  ALA     2      49.807  36.746  46.208  1.00  0.00     0.034 C 
BRANCH  14  16
ATOM     16  C   ALA     2      51.819  36.664  47.771  1.00  0.00     0.251 C 
ATOM     17  N   LEU     3      52.460  37.238  46.744  1.00  0.00    -0.338 N 
ATOM     18  H   LEU     3      52.059  37.217  45.829  1.00 99.99     0.164 HD
ATOM     19  O   ALA     2      52.333  36.475  48.874  1.00  0.00    -0.271 OA
BRANCH  17  20
ATOM     20  CA  LEU     3      53.809  37.845  46.780  1.00  0.00     0.159 C 
BRANCH  20  21
ATOM     21  CB  LEU     3      54.394  37.868  45.356  1.00  0.00     0.032 C 
BRANCH  21  22
ATOM     22  CG  LEU     3      55.554  36.891  45.131  1.00  0.00     0.002 C 
ATOM     23  CD2 LEU     3      55.040  35.496  44.770  1.00  0.00     0.000 C 
ATOM     24  CD1 LEU     3      56.402  36.800  46.401  1.00  0.00     0.000 C 
ENDBRANCH  21  22
ENDBRANCH  20  21
BRANCH  20  25
ATOM     25  C   LEU     3      53.880  39.260  47.383  1.00  0.00     0.251 C 
ATOM     26  N   LYS     4      54.037  39.329  48.711  1.00  0.00    -0.338 N 
ATOM     27  H   LYS     4      54.175  38.499  49.254  1.00 99.99     0.164 HD
ATOM     28  O   LEU     3      53.918  40.235  46.633  1.00  0.00    -0.271 OA
BRANCH  26  29
ATOM     29  CA  LYS     4      54.124  40.583  49.487  1.00  0.00     0.159 C 
BRANCH  29  30
ATOM     30  CB  LYS     4      53.757  40.334  50.959  1.00  0.00     0.032 C 
BRANCH  30  31
ATOM     31  CG  LYS     4      52.941  39.060  51.207  1.00  0.00     0.004 C 
BRANCH  31  32
ATOM     32  CD  LYS     4      52.910  38.728  52.704  1.00  0.00     0.032 C 
BRANCH  32  33
ATOM     33  CE  LYS     4      54.089  37.840  53.115  1.00  0.00     0.206 C 
BRANCH  33  34
ATOM     34  NZ  LYS     4      54.098  37.571  54.563  1.00  0.00    -0.064 N 
ATOM     35  HZ3 LYS     4      54.199  38.429  55.066  1.00 99.99     0.275 HD
ATOM     36  HZ1 LYS     4      53.234  37.139  54.827  1.00 99.99     0.275 HD
ATOM     37  HZ2 LYS     4      54.855  36.959  54.794  1.00 99.99     0.275 HD
ENDBRANCH  33  34
ENDBRANCH  32  33
ENDBRANCH  31  32
ENDBRANCH  30  31
ENDBRANCH  29  30
BRANCH  29  38
ATOM     38  C   LYS     4      55.514  41.246  49.445  1.00  0.00     0.251 C 
ATOM     39  N   SER     5      56.507  40.539  49.985  1.00  0.00    -0.336 N 
ATOM     40  H   SER     5      56.334  39.652  50.406  1.00 99.99     0.164 HD
ATOM     41  O   LYS     4      55.656  42.372  48.970  1.00  0.00    -0.271 OA
BRANCH  39  42
ATOM     42  CA  SER     5      57.898  41.015  50.138  1.00  0.00     0.189 C 
BRANCH  42  43
ATOM     43  CB  SER     5      58.170  41.412  51.597  1.00  0.00     0.169 C 
BRANCH  43  44
ATOM     44  OG  SER     5      58.307  42.828  51.748  1.00  0.00    -0.380 OA
ATOM     45  HG  SER     5      58.068  43.271  50.884  1.00 99.99     0.211 HD
ENDBRANCH  43  44
ENDBRANCH  42  43
BRANCH  42  46
ATOM     46  C   SER     5      58.967  39.994  49.720  1.00  0.00     0.254 C 
ATOM     47  N   GLY     6      59.759  40.354  48.695  1.00  0.00    -0.336 N 
ATOM     48  H   GLY     6      59.886  41.316  48.402  1.00 99.99     0.164 HD
ATOM     49  O   SER     5      59.050  38.908  50.292  1.00  0.00    -0.270 OA
BRANCH  47  50
ATOM     50  CA  GLY     6      60.606  39.378  47.988  1.00  0.00     0.189 C 
BRANCH  50  51
ATOM     51  C   GLY     6      61.178  39.840  46.651  1.00  0.00     0.253 C 
ATOM     52  O   GLY     6      61.324  41.039  46.400  1.00  0.00    -0.270 OA
ATOM     53  N   GLY     7      61.501  38.831  45.826  1.00  0.00    -0.336 N 
ATOM     54  H   GLY     7      61.594  37.884  46.161  1.00 99.99     0.164 HD
BRANCH  53  55
ATOM     55  CA  GLY     7      61.793  38.969  44.387  1.00  0.00     0.189 C 
BRANCH  55  56
ATOM     56  C   GLY     7      60.667  39.468  43.472  1.00  0.00     0.253 C 
ATOM     57  N   TRP     8      59.465  38.966  43.737  1.00  0.00    -0.337 N 
ATOM     58  H   TRP     8      59.293  38.556  44.640  1.00 99.99     0.164 HD
ATOM     59  O   GLY     7      60.876  40.348  42.633  1.00  0.00    -0.270 OA
BRANCH  57  60
ATOM     60  CA  TRP     8      58.293  38.964  42.844  1.00  0.00     0.164 C 
BRANCH  60  61
ATOM     61  CB  TRP     8      57.686  40.372  42.791  1.00  0.00     0.059 C 
BRANCH  61  62
ATOM     62  CG  TRP     8      57.502  40.941  44.202  1.00  0.00    -0.016 A 
ATOM     63  CD2 TRP     8      58.173  42.031  44.736  1.00  0.00    -0.001 A 
ATOM     64  CE2 TRP     8      57.704  42.184  46.030  1.00  0.00     0.042 A 
ATOM     65  CE3 TRP     8      59.115  42.909  44.216  1.00  0.00     0.014 A 
ATOM     66  CZ2 TRP     8      58.190  43.220  46.822  1.00  0.00     0.030 A 
ATOM     67  NE1 TRP     8      56.801  41.230  46.240  1.00  0.00    -0.365 N 
ATOM     68  CH2 TRP     8      59.145  44.099  46.307  1.00  0.00     0.002 A 
ATOM     69  CZ3 TRP     8      59.595  43.946  45.000  1.00  0.00     0.001 A 
ATOM     70  HE1 TRP     8      56.286  41.094  47.089  1.00 99.99     0.165 HD
ATOM     71  CD1 TRP     8      56.681  40.485  45.142  1.00  0.00     0.097 A 
ENDBRANCH  61  62
ENDBRANCH  60  61
BRANCH  60  72
ATOM     72  C   TRP     8      58.427  38.362  41.438  1.00  0.00     0.251 C 
ATOM     73  N   LEU     9      58.001  39.078  40.390  1.00  0.00    -0.338 N 
ATOM     74  H   LEU     9      57.534  39.957  40.501  1.00 99.99     0.164 HD
ATOM     75  O   TRP     8      59.065  37.315  41.307  1.00  0.00    -0.271 OA
BRANCH  73  76
ATOM     76  CA  LEU     9      58.140  38.601  38.999  1.00  0.00     0.159 C 
BRANCH  76  77
ATOM     77  C   LEU     9      59.266  39.285  38.208  1.00  0.00     0.251 C 
ATOM     78  N   ARG    10      59.562  38.752  37.018  1.00  0.00    -0.338 N 
ATOM     79  H   ARG    10      59.070  37.954  36.661  1.00 99.99     0.164 HD
ATOM     80  O   LEU     9      59.643  40.408  38.547  1.00  0.00    -0.271 OA
BRANCH  78  81
ATOM     81  CA  ARG    10      60.558  39.328  36.096  1.00  0.00     0.159 C 
BRANCH  81  82
ATOM     82  CB  ARG    10      59.956  40.447  35.237  1.00  0.00     0.034 C 
BRANCH  82  83
ATOM     83  CG  ARG    10      58.448  40.259  35.049  1.00  0.00     0.027 C 
BRANCH  83  84
ATOM     84  CD  ARG    10      57.641  41.486  35.488  1.00  0.00     0.116 C 
BRANCH  84  85
ATOM     85  NE  ARG    10      58.266  42.173  36.634  1.00  0.00    -0.212 N 
ATOM     86  CZ  ARG    10      58.437  43.492  36.767  1.00  0.00     0.666 C 
ATOM     87  NH2 ARG    10      59.147  43.978  37.775  1.00  0.00    -0.235 N 
ATOM     88  NH1 ARG    10      57.980  44.350  35.864  1.00  0.00    -0.235 N 
ATOM     89 2HH2 ARG    10      59.584  43.363  38.430  1.00 99.99     0.174 HD
ATOM     90 1HH2 ARG    10      59.282  44.964  37.845  1.00 99.99     0.174 HD
ATOM     91 1HH1 ARG    10      58.117  45.331  35.969  1.00 99.99     0.174 HD
ATOM     92 2HH1 ARG    10      57.488  43.992  35.069  1.00 99.99     0.174 HD
ATOM     93  HE  ARG    10      58.594  41.569  37.357  1.00 99.99     0.178 HD
ENDBRANCH  84  85
ENDBRANCH  83  84
ENDBRANCH  82  83
ENDBRANCH  81  82
BRANCH  81  94
ATOM     94  C   ARG    10      61.821  39.841  36.802  1.00  0.00     0.251 C 
ATOM     95  N   LEU    11      61.920  41.163  36.967  1.00  0.00    -0.338 N 
ATOM     96  H   LEU    11      61.253  41.789  36.562  1.00 99.99     0.164 HD
ATOM     97  O   ARG    10      62.640  39.042  37.253  1.00  0.00    -0.271 OA
BRANCH  95  98
ATOM     98  CA  LEU    11      63.003  41.816  37.728  1.00  0.00     0.159 C 
BRANCH  98  99
ATOM     99  CB  LEU    11      62.863  43.344  37.652  1.00  0.00     0.032 C 
BRANCH  99 100
ATOM    100  CG  LEU    11      63.807  44.006  36.641  1.00  0.00     0.002 C 
ATOM    101  CD1 LEU    11      65.040  43.122  36.449  1.00  0.00     0.000 C 
ATOM    102  CD2 LEU    11      63.117  44.224  35.290  1.00  0.00     0.000 C 
ENDBRANCH  99 100
ENDBRANCH  98  99
BRANCH  98 103
ATOM    103  C   LEU    11      63.050  41.382  39.203  1.00  0.00     0.251 C 
ATOM    104  O   LEU    11      62.158  41.716  39.980  1.00  0.00    -0.271 OA
ATOM    105  N   PHE    12      64.084  40.618  39.560  1.00  0.00    -0.337 N 
ATOM    106  H   PHE    12      64.722  40.252  38.874  1.00 99.99     0.164 HD
BRANCH 105 107
ATOM    107  CA  PHE    12      64.317  40.151  40.939  1.00  0.00     0.164 C 
BRANCH 107 108
ATOM    108  CB  PHE    12      65.463  39.138  40.987  1.00  0.00     0.056 C 
BRANCH 108 109
ATOM    109  CG  PHE    12      65.956  38.714  42.386  1.00  0.00    -0.044 A 
ATOM    110  CD1 PHE    12      67.208  39.038  42.888  1.00  0.00     0.008 A 
ATOM    111  CE1 PHE    12      67.623  38.529  44.108  1.00  0.00     0.001 A 
ATOM    112  CZ  PHE    12      66.791  37.671  44.833  1.00  0.00     0.000 A 
ATOM    113  CE2 PHE    12      65.529  37.353  44.322  1.00  0.00     0.001 A 
ATOM    114  CD2 PHE    12      65.121  37.883  43.105  1.00  0.00     0.008 A 
ENDBRANCH 108 109
ENDBRANCH 107 108
BRANCH 107 115
ATOM    115  C   PHE    12      64.625  41.268  41.954  1.00  0.00     0.251 C 
ATOM    116  O   PHE    12      65.490  42.103  41.686  1.00  0.00    -0.271 OA
ATOM    117  N   GLY    13      63.733  41.435  42.943  1.00  0.00    -0.336 N 
ATOM    118  H   GLY    13      62.906  40.861  43.057  1.00 99.99     0.164 HD
BRANCH 117 119
ATOM    119  CA  GLY    13      63.857  42.502  43.957  1.00  0.00     0.189 C 
BRANCH 119 120
ATOM    120  C   GLY    13      64.792  42.129  45.123  1.00  0.00     0.253 C 
ATOM    121  N   LEU    14      65.627  43.088  45.520  1.00  0.00    -0.337 N 
ATOM    122  H   LEU    14      65.645  43.964  45.036  1.00 99.99     0.164 HD
ATOM    123  O   GLY    13      64.849  40.973  45.543  1.00  0.00    -0.270 OA
BRANCH 121 124
ATOM    124  CA  LEU    14      66.557  42.981  46.656  1.00  0.00     0.159 C 
BRANCH 124 125
ATOM    125  CB  LEU    14      67.739  43.941  46.457  1.00  0.00     0.032 C 
BRANCH 125 126
ATOM    126  CG  LEU    14      69.088  43.241  46.244  1.00  0.00     0.002 C 
ATOM    127  CD2 LEU    14      69.300  42.847  44.778  1.00  0.00     0.000 C 
ATOM    128  CD1 LEU    14      69.156  41.995  47.128  1.00  0.00     0.000 C 
ENDBRANCH 125 126
ENDBRANCH 124 125
BRANCH 124 129
ATOM    129  C   LEU    14      65.875  43.288  47.996  1.00  0.00     0.251 C 
ATOM    130  N   LYS    15      64.550  43.152  47.977  1.00  0.00    -0.338 N 
ATOM    131  H   LYS    15      64.071  42.842  47.157  1.00 99.99     0.164 HD
ATOM    132  O   LEU    14      66.519  43.612  48.992  1.00  0.00    -0.271 OA
BRANCH 130 133
ATOM    133  CA  LYS    15      63.680  43.430  49.129  1.00  0.00     0.159 C 
BRANCH 133 134
ATOM    134  CB  LYS    15      62.609  44.469  48.756  1.00  0.00     0.032 C 
BRANCH 134 135
ATOM    135  CG  LYS    15      62.611  45.656  49.724  1.00  0.00     0.004 C 
BRANCH 135 136
ATOM    136  CD  LYS    15      63.937  45.804  50.471  1.00  0.00     0.032 C 
BRANCH 136 137
ATOM    137  CE  LYS    15      64.918  46.601  49.610  1.00  0.00     0.206 C 
BRANCH 137 138
ATOM    138  NZ  LYS    15      66.295  46.499  50.117  1.00  0.00    -0.064 N 
ATOM    139  HZ3 LYS    15      66.560  47.367  50.533  1.00 99.99     0.275 HD
ATOM    140  HZ2 LYS    15      66.915  46.281  49.363  1.00 99.99     0.275 HD
ATOM    141  HZ1 LYS    15      66.336  45.773  50.804  1.00 99.99     0.275 HD
ENDBRANCH 137 138
ENDBRANCH 136 137
ENDBRANCH 135 136
ENDBRANCH 134 135
ENDBRANCH 133 134
BRANCH 133 142
ATOM    142  C   LYS    15      63.018  42.148  49.641  1.00  0.00     0.251 C 
ATOM    143  N   ASP    16      63.875  41.163  49.880  1.00  0.00    -0.337 N 
ATOM    144  H   ASP    16      64.834  41.303  49.628  1.00 99.99     0.164 HD
ATOM    145  O   LYS    15      61.816  42.098  49.907  1.00  0.00    -0.271 OA
BRANCH 143 146
ATOM    146  CA  ASP    16      63.570  39.809  50.398  1.00  0.00     0.170 C 
BRANCH 146 147
ATOM    147  CB  ASP    16      64.812  38.892  50.312  1.00  0.00     0.129 C 
BRANCH 147 148
ATOM    148  CG  ASP    16      65.979  39.475  49.503  1.00  0.00     0.188 C 
ATOM    149  OD1 ASP    16      65.870  39.430  48.259  1.00  0.00    -0.647 OA
ATOM    150  OD2 ASP    16      66.766  40.227  50.118  1.00  0.00    -0.647 OA
ENDBRANCH 147 148
ENDBRANCH 146 147
BRANCH 146 151
ATOM    151  C   ASP    16      62.972  39.734  51.817  1.00  0.00     0.251 C 
ATOM    152  O   ASP    16      63.664  40.020  52.794  1.00  0.00    -0.271 OA
ATOM    153  N   LYS    17      61.686  39.388  51.914  1.00  0.00    -0.338 N 
ATOM    154  H   LYS    17      61.098  39.354  51.108  1.00 99.99     0.164 HD
BRANCH 153 155
ATOM    155  CA  LYS    17      60.983  39.173  53.197  1.00  0.00     0.159 C 
BRANCH 155 156
ATOM    156  C   LYS    17      61.252  40.276  54.242  1.00  0.00     0.251 C 
ATOM    157  N   LYS    18      62.076  39.925  55.231  1.00  0.00    -0.338 N 
ATOM    158  H   LYS    18      62.334  38.965  55.312  1.00 99.99     0.164 HD
ATOM    159  O   LYS    17      60.657  41.356  54.225  1.00  0.00    -0.271 OA
BRANCH 157 160
ATOM    160  CA  LYS    18      62.543  40.787  56.345  1.00  0.00     0.159 C 
BRANCH 160 161
ATOM    161  CB  LYS    18      62.681  39.994  57.648  1.00  0.00     0.032 C 
BRANCH 161 162
ATOM    162  CG  LYS    18      61.773  40.489  58.770  1.00  0.00     0.004 C 
BRANCH 162 163
ATOM    163  CD  LYS    18      61.038  39.281  59.343  1.00  0.00     0.032 C 
BRANCH 163 164
ATOM    164  CE  LYS    18      60.239  38.554  58.268  1.00  0.00     0.206 C 
BRANCH 164 165
ATOM    165  NZ  LYS    18      60.538  37.116  58.340  1.00  0.00    -0.064 N 
ATOM    166  HZ2 LYS    18      60.033  36.636  57.624  1.00 99.99     0.275 HD
ATOM    167  HZ1 LYS    18      60.275  36.764  59.236  1.00 99.99     0.275 HD
ATOM    168  HZ3 LYS    18      61.519  36.982  58.201  1.00 99.99     0.275 HD
ENDBRANCH 164 165
ENDBRANCH 163 164
ENDBRANCH 162 163
ENDBRANCH 161 162
ENDBRANCH 160 161
BRANCH 160 169
ATOM    169  C   LYS    18      63.908  41.452  56.102  1.00  0.00     0.251 C 
ATOM    170  O   LYS    18      64.142  42.594  56.499  1.00  0.00    -0.271 OA
ATOM    171  N   HIS    19      64.864  40.619  55.692  1.00  0.00    -0.336 N 
ATOM    172  H   HIS    19      64.671  39.646  55.583  1.00 99.99     0.164 HD
BRANCH 171 173
ATOM    173  CA  HIS    19      66.249  40.977  55.353  1.00  0.00     0.174 C 
BRANCH 173 174
ATOM    174  CB  HIS    19      67.005  40.947  56.696  1.00  0.00     0.078 C 
BRANCH 174 175
ATOM    175  CG  HIS    19      67.886  42.167  56.994  1.00  0.00     0.057 A 
ATOM    176  CD2 HIS    19      68.136  43.161  56.146  1.00  0.00     0.113 A 
ATOM    177  NE2 HIS    19      68.588  44.200  56.835  1.00  0.00    -0.223 NA
ATOM    178  CE1 HIS    19      68.667  43.835  58.109  1.00  0.00     0.175 A 
ATOM    179  ND1 HIS    19      68.260  42.572  58.205  1.00  0.00    -0.338 N 
ATOM    180  HD1 HIS    19      68.321  42.003  59.026  1.00 99.99     0.167 HD
ENDBRANCH 174 175
ENDBRANCH 173 174
BRANCH 173 181
ATOM    181  C   HIS    19      66.802  39.929  54.365  1.00  0.00     0.207 C 
ATOM    182  OXT HIS    19      66.115  38.892  54.237  1.00 99.99    -0.646 OA
ATOM    183  O   HIS    19      67.880  40.176  53.780  1.00 99.99    -0.646 OA
ENDBRANCH 173 181
ENDBRANCH 171 173
ENDBRANCH 160 169
ENDBRANCH 157 160
ENDBRANCH 155 156
BRANCH 155 184
ATOM    184  CB  LYS    17      61.364  37.787  53.743  1.00  0.00     0.032 C 
BRANCH 184 185
ATOM    185  CG  LYS    17      60.236  37.130  54.541  1.00  0.00     0.004 C 
BRANCH 185 186
ATOM    186  CD  LYS    17      59.212  36.502  53.599  1.00  0.00     0.032 C 
BRANCH 186 187
ATOM    187  CE  LYS    17      57.800  36.956  53.965  1.00  0.00     0.206 C 
BRANCH 187 188
ATOM    188  NZ  LYS    17      57.580  38.348  53.549  1.00  0.00    -0.064 N 
ATOM    189  HZ1 LYS    17      57.104  38.361  52.671  1.00 99.99     0.275 HD
ATOM    190  HZ3 LYS    17      58.465  38.806  53.456  1.00 99.99     0.275 HD
ATOM    191  HZ2 LYS    17      57.031  38.821  54.237  1.00 99.99     0.275 HD
ENDBRANCH 187 188
ENDBRANCH 186 187
ENDBRANCH 185 186
ENDBRANCH 184 185
ENDBRANCH 155 184
ENDBRANCH 153 155
ENDBRANCH 146 151
ENDBRANCH 143 146
ENDBRANCH 133 142
ENDBRANCH 130 133
ENDBRANCH 124 129
ENDBRANCH 121 124
ENDBRANCH 119 120
ENDBRANCH 117 119
ENDBRANCH 107 115
ENDBRANCH 105 107
ENDBRANCH  98 103
ENDBRANCH  95  98
ENDBRANCH  81  94
ENDBRANCH  78  81
ENDBRANCH  76  77
BRANCH  76 192
ATOM    192  CB  LEU     9      56.812  38.715  38.232  1.00  0.00     0.032 C 
BRANCH 192 193
ATOM    193  CG  LEU     9      55.916  37.477  38.364  1.00  0.00     0.002 C 
ATOM    194  CD2 LEU     9      54.889  37.634  39.493  1.00  0.00     0.000 C 
ATOM    195  CD1 LEU     9      56.783  36.247  38.634  1.00  0.00     0.000 C 
ENDBRANCH 192 193
ENDBRANCH  76 192
ENDBRANCH  73  76
ENDBRANCH  60  72
ENDBRANCH  57  60
ENDBRANCH  55  56
ENDBRANCH  53  55
ENDBRANCH  50  51
ENDBRANCH  47  50
ENDBRANCH  42  46
ENDBRANCH  39  42
ENDBRANCH  29  38
ENDBRANCH  26  29
ENDBRANCH  20  25
ENDBRANCH  17  20
ENDBRANCH  14  16
ENDBRANCH  11  14
ENDBRANCH   5  10
ENDBRANCH   1   5
TORSDOF 82
ENDMDL
MODEL 2
REMARK VINA RESULT:      -3.6      2.852      8.050
REMARK WARNING: 32 MAX_TORS EXCEEDED!!!
REMARK  82 active torsions:
REMARK  status: ('A' for Active; 'I' for Inactive)
REMARK    1  A    between atoms: N_1  and  CA_2 
REMARK    2  A    between atoms: CA_2  and  CB_5 
REMARK    3  A    between atoms: CA_2  and  C_3 
REMARK       I    between atoms: C_3  and  N_12 
REMARK    4  A    between atoms: CB_5  and  CG_6 
REMARK    5  A    between atoms: N_12  and  CA_13 
REMARK    6  A    between atoms: CA_13  and  C_14 
REMARK       I    between atoms: C_14  and  N_18 
REMARK    7  A    between atoms: N_18  and  CA_19 
REMARK    8  A    between atoms: CA_19  and  CB_22 
REMARK    9  A    between atoms: CA_19  and  C_20 
REMARK       I    between atoms: C_20  and  N_27 
REMARK   10  A    between atoms: CB_22  and  CG_23 
REMARK   11  A    between atoms: N_27  and  CA_28 
REMARK   12  A    between atoms: CA_28  and  CB_31 
REMARK   13  A    between atoms: CA_28  and  C_29 
REMARK       I    between atoms: C_29  and  N_40 
REMARK   14  A    between atoms: CB_31  and  CG_32 
REMARK   15  A    between atoms: CG_32  and  CD_33 
REMARK   16  A    between atoms: CD_33  and  CE_34 
REMARK   17  A    between atoms: CE_34  and  NZ_35 
REMARK   18  A    between atoms: N_40  and  CA_41 
REMARK   19  A    between atoms: CA_41  and  CB_44 
REMARK   20  A    between atoms: CA_41  and  C_42 
REMARK       I    between atoms: C_42  and  N_48 
REMARK   21  A    between atoms: CB_44  and  OG_45 
REMARK   22  A    between atoms: N_48  and  CA_49 
REMARK   23  A    between atoms: CA_49  and  C_50 
REMARK       I    between atoms: C_50  and  N_53 
REMARK   24  A    between atoms: N_53  and  CA_54 
REMARK   25  A    between atoms: CA_54  and  C_55 
REMARK       I    between atoms: C_55  and  N_58 
REMARK   26  A    between atoms: N_58  and  CA_59 
REMARK   27  A    between atoms: CA_59  and  CB_62 
REMARK   28  A    between atoms: CA_59  and  C_60 
REMARK       I    between atoms: C_60  and  N_74 
REMARK   29  A    between atoms: CB_62  and  CG_63 
REMARK   30  A    between atoms: N_74  and  CA_75 
REMARK   31  A    between atoms: CA_75  and  C_76 
REMARK   32  A    between atoms: CA_75  and  CB_78 
REMARK       I    between atoms: C_76  and  N_83 
REMARK   33  A    between atoms: CB_78  and  CG_79 
REMARK   34  A    between atoms: N_83  and  CA_84 
REMARK   35  A    between atoms: CA_84  and  CB_87 
REMARK   36  A    between atoms: CA_84  and  C_85 
REMARK       I    between atoms: C_85  and  N_100 
REMARK   37  A    between atoms: CB_87  and  CG_88 
REMARK   38  A    between atoms: CG_88  and  CD_89 
REMARK   39  A    between atoms: CD_89  and  NE_90 
REMARK       I    between atoms: NE_90  and  CZ_91 
REMARK       I    between atoms: CZ_91  and  NH1_92 
REMARK   40  A    between atoms: N_100  and  CA_101 
REMARK   41  A    between atoms: CA_101  and  CB_104 
REMARK   42  A    between atoms: CA_101  and  C_102 
REMARK       I    between atoms: C_102  and  N_109 
REMARK   43  A    between atoms: CB_104  and  CG_105 
REMARK   44  A    between atoms: N_109  and  CA_110 
REMARK   45  A    between atoms: CA_110  and  CB_113 
REMARK   46  A    between atoms: CA_110  and  C_111 
REMARK       I    between atoms: C_111  and  N_121 
REMARK   47  A    between atoms: CB_113  and  CG_114 
REMARK   48  A    between atoms: N_121  and  CA_122 
REMARK   49  A    between atoms: CA_122  and  C_123 
REMARK       I    between atoms: C_123  and  N_126 
REMARK   50  A    between atoms: N_126  and  CA_127 
REMARK   51  A    between atoms: CA_127  and  CB_130 
REMARK   52  A    between atoms: CA_127  and  C_128 
REMARK       I    between atoms: C_128  and  N_135 
REMARK   53  A    between atoms: CB_130  and  CG_131 
REMARK   54  A    between atoms: N_135  and  CA_136 
REMARK   55  A    between atoms: CA_136  and  CB_139 
REMARK   56  A    between atoms: CA_136  and  C_137 
REMARK       I    between atoms: C_137  and  N_148 
REMARK   57  A    between atoms: CB_139  and  CG_140 
REMARK   58  A    between atoms: CG_140  and  CD_141 
REMARK   59  A    between atoms: CD_141  and  CE_142 
REMARK   60  A    between atoms: CE_142  and  NZ_143 
REMARK   61  A    between atoms: N_148  and  CA_149 
REMARK   62  A    between atoms: CA_149  and  CB_152 
REMARK   63  A    between atoms: CA_149  and  C_150 
REMARK       I    between atoms: C_150  and  N_157 
REMARK   64  A    between atoms: CB_152  and  CG_153 
REMARK   65  A    between atoms: N_157  and  CA_158 
REMARK   66  A    between atoms: CA_158  and  C_159 
REMARK   67  A    between atoms: CA_158  and  CB_161 
REMARK       I    between atoms: C_159  and  N_170 
REMARK   68  A    between atoms: CB_161  and  CG_162 
REMARK   69  A    between atoms: CG_162  and  CD_163 
REMARK   70  A    between atoms: CD_163  and  CE_164 
REMARK   71  A    between atoms: CE_164  and  NZ_165 
REMARK   72  A    between atoms: N_170  and  CA_171 
REMARK   73  A    between atoms: CA_171  and  CB_174 
REMARK   74  A    between atoms: CA_171  and  C_172 
REMARK       I    between atoms: C_172  and  N_183 
REMARK   75  A    between atoms: CB_174  and  CG_175 
REMARK   76  A    between atoms: CG_175  and  CD_176 
REMARK   77  A    between atoms: CD_176  and  CE_177 
REMARK   78  A    between atoms: CE_177  and  NZ_178 
REMARK   79  A    between atoms: N_183  and  CA_184 
REMARK   80  A    between atoms: CA_184  and  CB_187 
REMARK   81  A    between atoms: CA_184  and  C_185 
REMARK   82  A    between atoms: CB_187  and  CG_188 
ROOT
ATOM      1  N   LEU     1      53.528  39.790  47.997  1.00  0.00    -0.058 N 
ATOM      2  H1  LEU     1      53.899  39.278  47.227  1.00 99.99     0.276 HD
ATOM      3  H2  LEU     1      52.944  40.513  47.674  1.00 99.99     0.276 HD
ATOM      4  H3  LEU     1      54.274  40.249  48.465  1.00 99.99     0.276 HD
ENDROOT
BRANCH   1   5
ATOM      5  CA  LEU     1      52.819  38.857  48.916  1.00  0.00     0.255 C 
BRANCH   5   6
ATOM      6  CB  LEU     1      51.453  39.427  49.344  1.00  0.00     0.040 C 
BRANCH   6   7
ATOM      7  CG  LEU     1      51.184  39.379  50.861  1.00  0.00     0.002 C 
ATOM      8  CD2 LEU     1      52.489  39.113  51.615  1.00  0.00     0.000 C 
ATOM      9  CD1 LEU     1      50.160  38.300  51.235  1.00  0.00     0.000 C 
ENDBRANCH   6   7
ENDBRANCH   5   6
BRANCH   5  10
ATOM     10  C   LEU     1      52.769  37.445  48.298  1.00  0.00     0.259 C 
ATOM     11  N   ALA     2      52.021  37.262  47.197  1.00  0.00    -0.338 N 
ATOM     12  H   ALA     2      51.385  37.975  46.903  1.00 99.99     0.164 HD
ATOM     13  O   LEU     1      53.583  36.616  48.706  1.00  0.00    -0.271 OA
BRANCH  11  14
ATOM     14  CA  ALA     2      51.953  36.044  46.348  1.00  0.00     0.159 C 
ATOM     15  CB  ALA     2      50.622  36.044  45.581  1.00  0.00     0.034 C 
BRANCH  14  16
ATOM     16  C   ALA     2      53.149  35.740  45.423  1.00  0.00     0.251 C 
ATOM     17  N   LEU     3      53.555  36.709  44.592  1.00  0.00    -0.338 N 
ATOM     18  H   LEU     3      52.985  37.516  44.449  1.00 99.99     0.164 HD
ATOM     19  O   ALA     2      53.691  34.637  45.500  1.00  0.00    -0.271 OA
BRANCH  17  20
ATOM     20  CA  LEU     3      54.763  36.683  43.738  1.00  0.00     0.159 C 
BRANCH  20  21
ATOM     21  CB  LEU     3      54.597  37.701  42.594  1.00  0.00     0.032 C 
BRANCH  21  22
ATOM     22  CG  LEU     3      54.297  37.076  41.227  1.00  0.00     0.002 C 
ATOM     23  CD2 LEU     3      55.325  36.000  40.874  1.00  0.00     0.000 C 
ATOM     24  CD1 LEU     3      54.319  38.162  40.150  1.00  0.00     0.000 C 
ENDBRANCH  21  22
ENDBRANCH  20  21
BRANCH  20  25
ATOM     25  C   LEU     3      56.092  36.947  44.467  1.00  0.00     0.251 C 
ATOM     26  N   LYS     4      56.594  35.925  45.171  1.00  0.00    -0.338 N 
ATOM     27  H   LYS     4      56.155  35.025  45.150  1.00 99.99     0.164 HD
ATOM     28  O   LEU     3      56.685  38.009  44.276  1.00  0.00    -0.271 OA
BRANCH  26  29
ATOM     29  CA  LYS     4      57.851  35.968  45.945  1.00  0.00     0.159 C 
BRANCH  29  30
ATOM     30  CB  LYS     4      59.065  36.018  45.001  1.00  0.00     0.032 C 
BRANCH  30  31
ATOM     31  CG  LYS     4      60.202  35.059  45.370  1.00  0.00     0.004 C 
BRANCH  31  32
ATOM     32  CD  LYS     4      60.658  34.270  44.137  1.00  0.00     0.032 C 
BRANCH  32  33
ATOM     33  CE  LYS     4      60.730  35.155  42.889  1.00  0.00     0.206 C 
BRANCH  33  34
ATOM     34  NZ  LYS     4      62.004  35.888  42.805  1.00  0.00    -0.064 N 
ATOM     35  HZ3 LYS     4      62.473  35.656  41.953  1.00 99.99     0.275 HD
ATOM     36  HZ1 LYS     4      61.824  36.873  42.820  1.00 99.99     0.275 HD
ATOM     37  HZ2 LYS     4      62.590  35.649  43.581  1.00 99.99     0.275 HD
ENDBRANCH  33  34
ENDBRANCH  32  33
ENDBRANCH  31  32
ENDBRANCH  30  31
ENDBRANCH  29  30
BRANCH  29  38
ATOM     38  C   LYS     4      57.947  37.161  46.913  1.00  0.00     0.251 C 
ATOM     39  N   SER     5      58.500  38.267  46.413  1.00  0.00    -0.336 N 
ATOM     40  H   SER     5      58.845  38.290  45.478  1.00 99.99     0.164 HD
ATOM     41  O   LYS     4      57.564  37.054  48.077  1.00  0.00    -0.271 OA
BRANCH  39  42
ATOM     42  CA  SER     5      58.776  39.497  47.186  1.00  0.00     0.189 C 
BRANCH  42  43
ATOM     43  CB  SER     5      57.461  40.148  47.641  1.00  0.00     0.169 C 
BRANCH  43  44
ATOM     44  OG  SER     5      56.466  40.117  46.613  1.00  0.00    -0.380 OA
ATOM     45  HG  SER     5      56.762  40.700  45.857  1.00 99.99     0.211 HD
ENDBRANCH  43  44
ENDBRANCH  42  43
BRANCH  42  46
ATOM     46  C   SER     5      59.649  39.281  48.430  1.00  0.00     0.254 C 
ATOM     47  N   GLY     6      60.944  39.001  48.202  1.00  0.00    -0.336 N 
ATOM     48  H   GLY     6      61.412  39.214  47.328  1.00 99.99     0.164 HD
ATOM     49  O   SER     5      59.157  39.339  49.557  1.00  0.00    -0.270 OA
BRANCH  47  50
ATOM     50  CA  GLY     6      61.823  38.470  49.258  1.00  0.00     0.189 C 
BRANCH  50  51
ATOM     51  C   GLY     6      63.196  37.986  48.800  1.00  0.00     0.253 C 
ATOM     52  O   GLY     6      63.795  38.548  47.879  1.00  0.00    -0.270 OA
ATOM     53  N   GLY     7      63.657  36.935  49.497  1.00  0.00    -0.336 N 
ATOM     54  H   GLY     7      63.253  36.670  50.382  1.00 99.99     0.164 HD
BRANCH  53  55
ATOM     55  CA  GLY     7      64.795  36.085  49.100  1.00  0.00     0.189 C 
BRANCH  55  56
ATOM     56  C   GLY     7      66.203  36.687  49.182  1.00  0.00     0.253 C 
ATOM     57  N   TRP     8      66.305  37.774  49.941  1.00  0.00    -0.337 N 
ATOM     58  H   TRP     8      65.589  37.965  50.622  1.00 99.99     0.164 HD
ATOM     59  O   GLY     7      67.165  36.121  48.657  1.00  0.00    -0.270 OA
BRANCH  57  60
ATOM     60  CA  TRP     8      67.401  38.759  49.928  1.00  0.00     0.164 C 
BRANCH  60  61
ATOM     61  CB  TRP     8      68.664  38.128  50.526  1.00  0.00     0.059 C 
BRANCH  61  62
ATOM     62  CG  TRP     8      68.752  38.401  52.032  1.00  0.00    -0.016 A 
ATOM     63  CD2 TRP     8      67.936  37.852  53.010  1.00  0.00    -0.001 A 
ATOM     64  CE2 TRP     8      68.363  38.379  54.217  1.00  0.00     0.042 A 
ATOM     65  CE3 TRP     8      66.893  36.936  52.966  1.00  0.00     0.014 A 
ATOM     66  CZ2 TRP     8      67.733  37.997  55.397  1.00  0.00     0.030 A 
ATOM     67  NE1 TRP     8      69.382  39.194  53.956  1.00  0.00    -0.365 N 
ATOM     68  CH2 TRP     8      66.678  37.084  55.358  1.00  0.00     0.002 A 
ATOM     69  CZ3 TRP     8      66.270  36.548  54.141  1.00  0.00     0.001 A 
ATOM     70  HE1 TRP     8      69.899  39.714  54.639  1.00 99.99     0.165 HD
ATOM     71  CD1 TRP     8      69.614  39.206  52.644  1.00  0.00     0.097 A 
ENDBRANCH  61  62
ENDBRANCH  60  61
BRANCH  60  72
ATOM     72  C   TRP     8      67.715  39.510  48.627  1.00  0.00     0.251 C 
ATOM     73  N   LEU     9      66.897  40.497  48.241  1.00  0.00    -0.338 N 
ATOM     74  H   LEU     9      66.051  40.710  48.735  1.00 99.99     0.164 HD
ATOM     75  O   TRP     8      68.791  39.289  48.068  1.00  0.00    -0.271 OA
BRANCH  73  76
ATOM     76  CA  LEU     9      67.151  41.308  47.033  1.00  0.00     0.159 C 
BRANCH  76  77
ATOM     77  C   LEU     9      66.989  40.539  45.713  1.00  0.00     0.251 C 
ATOM     78  N   ARG    10      65.763  40.530  45.180  1.00  0.00    -0.338 N 
ATOM     79  H   ARG    10      64.995  41.006  45.616  1.00 99.99     0.164 HD
ATOM     80  O   LEU     9      67.994  40.215  45.077  1.00  0.00    -0.271 OA
BRANCH  78  81
ATOM     81  CA  ARG    10      65.447  39.909  43.880  1.00  0.00     0.159 C 
BRANCH  81  82
ATOM     82  CB  ARG    10      64.425  38.774  44.028  1.00  0.00     0.034 C 
BRANCH  82  83
ATOM     83  CG  ARG    10      65.095  37.401  43.920  1.00  0.00     0.027 C 
BRANCH  83  84
ATOM     84  CD  ARG    10      65.538  36.851  45.280  1.00  0.00     0.116 C 
BRANCH  84  85
ATOM     85  NE  ARG    10      66.607  35.844  45.143  1.00  0.00    -0.212 N 
ATOM     86  CZ  ARG    10      67.907  36.033  45.388  1.00  0.00     0.666 C 
ATOM     87  NH2 ARG    10      68.791  35.094  45.084  1.00  0.00    -0.235 N 
ATOM     88  NH1 ARG    10      68.369  37.184  45.863  1.00  0.00    -0.235 N 
ATOM     89 2HH2 ARG    10      68.498  34.246  44.644  1.00 99.99     0.174 HD
ATOM     90 1HH2 ARG    10      69.759  35.262  45.255  1.00 99.99     0.174 HD
ATOM     91 1HH1 ARG    10      69.340  37.317  46.038  1.00 99.99     0.174 HD
ATOM     92 2HH1 ARG    10      67.717  37.921  46.046  1.00 99.99     0.174 HD
ATOM     93  HE  ARG    10      66.302  34.950  44.823  1.00 99.99     0.178 HD
ENDBRANCH  84  85
ENDBRANCH  83  84
ENDBRANCH  82  83
ENDBRANCH  81  82
BRANCH  81  94
ATOM     94  C   ARG    10      64.956  40.911  42.825  1.00  0.00     0.251 C 
ATOM     95  N   LEU    11      63.909  40.537  42.085  1.00  0.00    -0.338 N 
ATOM     96  H   LEU    11      63.530  39.613  42.149  1.00 99.99     0.164 HD
ATOM     97  O   ARG    10      65.473  42.025  42.750  1.00  0.00    -0.271 OA
BRANCH  95  98
ATOM     98  CA  LEU    11      63.234  41.421  41.114  1.00  0.00     0.159 C 
BRANCH  98  99
ATOM     99  CB  LEU    11      63.284  40.804  39.707  1.00  0.00     0.032 C 
BRANCH  99 100
ATOM    100  CG  LEU    11      63.915  41.717  38.649  1.00  0.00     0.002 C 
ATOM    101  CD1 LEU    11      65.375  41.311  38.438  1.00  0.00     0.000 C 
ATOM    102  CD2 LEU    11      63.163  41.634  37.316  1.00  0.00     0.000 C 
ENDBRANCH  99 100
ENDBRANCH  98  99
BRANCH  98 103
ATOM    103  C   LEU    11      61.773  41.722  41.486  1.00  0.00     0.251 C 
ATOM    104  O   LEU    11      60.950  41.988  40.613  1.00  0.00    -0.271 OA
ATOM    105  N   PHE    12      61.469  41.649  42.783  1.00  0.00    -0.337 N 
ATOM    106  H   PHE    12      62.130  41.299  43.454  1.00 99.99     0.164 HD
BRANCH 105 107
ATOM    107  CA  PHE    12      60.132  41.954  43.325  1.00  0.00     0.164 C 
BRANCH 107 108
ATOM    108  CB  PHE    12      59.379  40.669  43.677  1.00  0.00     0.056 C 
BRANCH 108 109
ATOM    109  CG  PHE    12      58.879  39.812  42.496  1.00  0.00    -0.044 A 
ATOM    110  CD1 PHE    12      59.353  38.538  42.219  1.00  0.00     0.008 A 
ATOM    111  CE1 PHE    12      58.937  37.872  41.076  1.00  0.00     0.001 A 
ATOM    112  CZ  PHE    12      58.051  38.487  40.187  1.00  0.00     0.000 A 
ATOM    113  CE2 PHE    12      57.575  39.769  40.477  1.00  0.00     0.001 A 
ATOM    114  CD2 PHE    12      57.990  40.417  41.632  1.00  0.00     0.008 A 
ENDBRANCH 108 109
ENDBRANCH 107 108
BRANCH 107 115
ATOM    115  C   PHE    12      60.132  42.862  44.569  1.00  0.00     0.251 C 
ATOM    116  O   PHE    12      60.118  44.085  44.422  1.00  0.00    -0.271 OA
ATOM    117  N   GLY    13      59.858  42.266  45.741  1.00  0.00    -0.336 N 
ATOM    118  H   GLY    13      59.678  41.274  45.837  1.00 99.99     0.164 HD
BRANCH 117 119
ATOM    119  CA  GLY    13      59.762  43.012  47.011  1.00  0.00     0.189 C 
BRANCH 119 120
ATOM    120  C   GLY    13      60.968  42.789  47.942  1.00  0.00     0.253 C 
ATOM    121  N   LEU    14      61.091  43.660  48.944  1.00  0.00    -0.337 N 
ATOM    122  H   LEU    14      60.446  44.420  49.023  1.00 99.99     0.164 HD
ATOM    123  O   GLY    13      61.828  41.950  47.674  1.00  0.00    -0.270 OA
BRANCH 121 124
ATOM    124  CA  LEU    14      62.122  43.600  49.993  1.00  0.00     0.159 C 
BRANCH 124 125
ATOM    125  CB  LEU    14      62.946  44.896  49.991  1.00  0.00     0.032 C 
BRANCH 125 126
ATOM    126  CG  LEU    14      64.208  44.836  49.121  1.00  0.00     0.002 C 
ATOM    127  CD2 LEU    14      64.782  43.417  49.045  1.00  0.00     0.000 C 
ATOM    128  CD1 LEU    14      65.260  45.788  49.691  1.00  0.00     0.000 C 
ENDBRANCH 125 126
ENDBRANCH 124 125
BRANCH 124 129
ATOM    129  C   LEU    14      61.519  43.383  51.387  1.00  0.00     0.251 C 
ATOM    130  N   LYS    15      60.663  42.366  51.459  1.00  0.00    -0.338 N 
ATOM    131  H   LYS    15      60.474  41.788  50.667  1.00 99.99     0.164 HD
ATOM    132  O   LEU    14      61.829  44.091  52.345  1.00  0.00    -0.271 OA
BRANCH 130 133
ATOM    133  CA  LYS    15      59.931  41.994  52.680  1.00  0.00     0.159 C 
BRANCH 133 134
ATOM    134  CB  LYS    15      58.541  41.439  52.326  1.00  0.00     0.032 C 
BRANCH 134 135
ATOM    135  CG  LYS    15      57.745  42.420  51.459  1.00  0.00     0.004 C 
BRANCH 135 136
ATOM    136  CD  LYS    15      56.346  41.905  51.122  1.00  0.00     0.032 C 
BRANCH 136 137
ATOM    137  CE  LYS    15      55.903  42.480  49.776  1.00  0.00     0.206 C 
BRANCH 137 138
ATOM    138  NZ  LYS    15      54.511  42.952  49.816  1.00  0.00    -0.064 N 
ATOM    139  HZ3 LYS    15      54.386  43.551  50.605  1.00 99.99     0.275 HD
ATOM    140  HZ2 LYS    15      53.893  42.169  49.884  1.00 99.99     0.275 HD
ATOM    141  HZ1 LYS    15      54.315  43.460  48.977  1.00 99.99     0.275 HD
ENDBRANCH 137 138
ENDBRANCH 136 137
ENDBRANCH 135 136
ENDBRANCH 134 135
ENDBRANCH 133 134
BRANCH 133 142
ATOM    142  C   LYS    15      60.717  40.967  53.500  1.00  0.00     0.251 C 
ATOM    143  N   ASP    16      61.937  41.370  53.834  1.00  0.00    -0.337 N 
ATOM    144  H   ASP    16      62.264  42.239  53.458  1.00 99.99     0.164 HD
ATOM    145  O   LYS    15      60.202  39.921  53.899  1.00  0.00    -0.271 OA
BRANCH 143 146
ATOM    146  CA  ASP    16      62.942  40.634  54.636  1.00  0.00     0.170 C 
BRANCH 146 147
ATOM    147  CB  ASP    16      64.153  40.227  53.766  1.00  0.00     0.129 C 
BRANCH 147 148
ATOM    148  CG  ASP    16      63.790  39.755  52.351  1.00  0.00     0.188 C 
ATOM    149  OD1 ASP    16      63.561  40.649  51.509  1.00  0.00    -0.647 OA
ATOM    150  OD2 ASP    16      64.071  38.570  52.067  1.00  0.00    -0.647 OA
ENDBRANCH 147 148
ENDBRANCH 146 147
BRANCH 146 151
ATOM    151  C   ASP    16      63.440  41.329  55.919  1.00  0.00     0.251 C 
ATOM    152  O   ASP    16      63.333  42.549  56.041  1.00  0.00    -0.271 OA
ATOM    153  N   LYS    17      63.941  40.545  56.876  1.00  0.00    -0.338 N 
ATOM    154  H   LYS    17      63.836  39.552  56.839  1.00 99.99     0.164 HD
BRANCH 153 155
ATOM    155  CA  LYS    17      64.552  41.051  58.125  1.00  0.00     0.159 C 
BRANCH 155 156
ATOM    156  C   LYS    17      65.862  41.833  57.898  1.00  0.00     0.251 C 
ATOM    157  N   LYS    18      66.935  41.077  57.659  1.00  0.00    -0.338 N 
ATOM    158  H   LYS    18      66.855  40.091  57.786  1.00 99.99     0.164 HD
ATOM    159  O   LYS    17      65.931  43.056  58.047  1.00  0.00    -0.271 OA
BRANCH 157 160
ATOM    160  CA  LYS    18      68.310  41.554  57.366  1.00  0.00     0.159 C 
BRANCH 160 161
ATOM    161  CB  LYS    18      69.352  40.468  57.649  1.00  0.00     0.032 C 
BRANCH 161 162
ATOM    162  CG  LYS    18      68.959  39.513  58.772  1.00  0.00     0.004 C 
BRANCH 162 163
ATOM    163  CD  LYS    18      69.790  38.243  58.618  1.00  0.00     0.032 C 
BRANCH 163 164
ATOM    164  CE  LYS    18      70.731  38.047  59.800  1.00  0.00     0.206 C 
BRANCH 164 165
ATOM    165  NZ  LYS    18      71.071  36.621  59.911  1.00  0.00    -0.064 N 
ATOM    166  HZ2 LYS    18      70.740  36.267  60.785  1.00 99.99     0.275 HD
ATOM    167  HZ1 LYS    18      72.061  36.506  59.850  1.00 99.99     0.275 HD
ATOM    168  HZ3 LYS    18      70.629  36.124  59.164  1.00 99.99     0.275 HD
ENDBRANCH 164 165
ENDBRANCH 163 164
ENDBRANCH 162 163
ENDBRANCH 161 162
ENDBRANCH 160 161
BRANCH 160 169
ATOM    169  C   LYS    18      68.532  41.991  55.908  1.00  0.00     0.251 C 
ATOM    170  O   LYS    18      67.752  41.657  55.016  1.00  0.00    -0.271 OA
ATOM    171  N   HIS    19      69.444  42.950  55.752  1.00  0.00    -0.336 N 
ATOM    172  H   HIS    19      69.907  43.339  56.545  1.00 99.99     0.164 HD
BRANCH 171 173
ATOM    173  CA  HIS    19      69.884  43.537  54.477  1.00  0.00     0.174 C 
BRANCH 173 174
ATOM    174  CB  HIS    19      69.789  45.061  54.690  1.00  0.00     0.078 C 
BRANCH 174 175
ATOM    175  CG  HIS    19      70.239  45.572  56.064  1.00  0.00     0.057 A 
ATOM    176  CD2 HIS    19      69.519  46.346  56.871  1.00  0.00     0.113 A 
ATOM    177  NE2 HIS    19      70.027  46.272  58.093  1.00  0.00    -0.223 NA
ATOM    178  CE1 HIS    19      71.097  45.489  58.037  1.00  0.00     0.175 A 
ATOM    179  ND1 HIS    19      71.246  45.078  56.781  1.00  0.00    -0.338 N 
ATOM    180  HD1 HIS    19      72.031  44.570  56.425  1.00 99.99     0.167 HD
ENDBRANCH 174 175
ENDBRANCH 173 174
BRANCH 173 181
ATOM    181  C   HIS    19      71.336  43.090  54.204  1.00  0.00     0.207 C 
ATOM    182  OXT HIS    19      71.913  42.519  55.155  1.00 99.99    -0.646 OA
ATOM    183  O   HIS    19      71.828  43.332  53.080  1.00 99.99    -0.646 OA
ENDBRANCH 173 181
ENDBRANCH 171 173
ENDBRANCH 160 169
ENDBRANCH 157 160
ENDBRANCH 155 156
BRANCH 155 184
ATOM    184  CB  LYS    17      64.771  39.868  59.081  1.00  0.00     0.032 C 
BRANCH 184 185
ATOM    185  CG  LYS    17      65.140  38.573  58.353  1.00  0.00     0.004 C 
BRANCH 185 186
ATOM    186  CD  LYS    17      65.159  37.399  59.330  1.00  0.00     0.032 C 
BRANCH 186 187
ATOM    187  CE  LYS    17      63.735  37.021  59.738  1.00  0.00     0.206 C 
BRANCH 187 188
ATOM    188  NZ  LYS    17      62.865  36.938  58.558  1.00  0.00    -0.064 N 
ATOM    189  HZ1 LYS    17      63.426  36.883  57.734  1.00 99.99     0.275 HD
ATOM    190  HZ3 LYS    17      62.288  37.754  58.517  1.00 99.99     0.275 HD
ATOM    191  HZ2 LYS    17      62.286  36.125  58.626  1.00 99.99     0.275 HD
ENDBRANCH 187 188
ENDBRANCH 186 187
ENDBRANCH 185 186
ENDBRANCH 184 185
ENDBRANCH 155 184
ENDBRANCH 153 155
ENDBRANCH 146 151
ENDBRANCH 143 146
ENDBRANCH 133 142
ENDBRANCH 130 133
ENDBRANCH 124 129
ENDBRANCH 121 124
ENDBRANCH 119 120
ENDBRANCH 117 119
ENDBRANCH 107 115
ENDBRANCH 105 107
ENDBRANCH  98 103
ENDBRANCH  95  98
ENDBRANCH  81  94
ENDBRANCH  78  81
ENDBRANCH  76  77
BRANCH  76 192
ATOM    192  CB  LEU     9      68.535  41.976  47.088  1.00  0.00     0.032 C 
BRANCH 192 193
ATOM    193  CG  LEU     9      68.540  43.425  46.584  1.00  0.00     0.002 C 
ATOM    194  CD2 LEU     9      67.117  43.971  46.406  1.00  0.00     0.000 C 
ATOM    195  CD1 LEU     9      69.282  43.498  45.249  1.00  0.00     0.000 C 
ENDBRANCH 192 193
ENDBRANCH  76 192
ENDBRANCH  73  76
ENDBRANCH  60  72
ENDBRANCH  57  60
ENDBRANCH  55  56
ENDBRANCH  53  55
ENDBRANCH  50  51
ENDBRANCH  47  50
ENDBRANCH  42  46
ENDBRANCH  39  42
ENDBRANCH  29  38
ENDBRANCH  26  29
ENDBRANCH  20  25
ENDBRANCH  17  20
ENDBRANCH  14  16
ENDBRANCH  11  14
ENDBRANCH   5  10
ENDBRANCH   1   5
TORSDOF 82
ENDMDL
MODEL 3
REMARK VINA RESULT:      -3.5      2.681     12.520
REMARK WARNING: 32 MAX_TORS EXCEEDED!!!
REMARK  82 active torsions:
REMARK  status: ('A' for Active; 'I' for Inactive)
REMARK    1  A    between atoms: N_1  and  CA_2 
REMARK    2  A    between atoms: CA_2  and  CB_5 
REMARK    3  A    between atoms: CA_2  and  C_3 
REMARK       I    between atoms: C_3  and  N_12 
REMARK    4  A    between atoms: CB_5  and  CG_6 
REMARK    5  A    between atoms: N_12  and  CA_13 
REMARK    6  A    between atoms: CA_13  and  C_14 
REMARK       I    between atoms: C_14  and  N_18 
REMARK    7  A    between atoms: N_18  and  CA_19 
REMARK    8  A    between atoms: CA_19  and  CB_22 
REMARK    9  A    between atoms: CA_19  and  C_20 
REMARK       I    between atoms: C_20  and  N_27 
REMARK   10  A    between atoms: CB_22  and  CG_23 
REMARK   11  A    between atoms: N_27  and  CA_28 
REMARK   12  A    between atoms: CA_28  and  CB_31 
REMARK   13  A    between atoms: CA_28  and  C_29 
REMARK       I    between atoms: C_29  and  N_40 
REMARK   14  A    between atoms: CB_31  and  CG_32 
REMARK   15  A    between atoms: CG_32  and  CD_33 
REMARK   16  A    between atoms: CD_33  and  CE_34 
REMARK   17  A    between atoms: CE_34  and  NZ_35 
REMARK   18  A    between atoms: N_40  and  CA_41 
REMARK   19  A    between atoms: CA_41  and  CB_44 
REMARK   20  A    between atoms: CA_41  and  C_42 
REMARK       I    between atoms: C_42  and  N_48 
REMARK   21  A    between atoms: CB_44  and  OG_45 
REMARK   22  A    between atoms: N_48  and  CA_49 
REMARK   23  A    between atoms: CA_49  and  C_50 
REMARK       I    between atoms: C_50  and  N_53 
REMARK   24  A    between atoms: N_53  and  CA_54 
REMARK   25  A    between atoms: CA_54  and  C_55 
REMARK       I    between atoms: C_55  and  N_58 
REMARK   26  A    between atoms: N_58  and  CA_59 
REMARK   27  A    between atoms: CA_59  and  CB_62 
REMARK   28  A    between atoms: CA_59  and  C_60 
REMARK       I    between atoms: C_60  and  N_74 
REMARK   29  A    between atoms: CB_62  and  CG_63 
REMARK   30  A    between atoms: N_74  and  CA_75 
REMARK   31  A    between atoms: CA_75  and  C_76 
REMARK   32  A    between atoms: CA_75  and  CB_78 
REMARK       I    between atoms: C_76  and  N_83 
REMARK   33  A    between atoms: CB_78  and  CG_79 
REMARK   34  A    between atoms: N_83  and  CA_84 
REMARK   35  A    between atoms: CA_84  and  CB_87 
REMARK   36  A    between atoms: CA_84  and  C_85 
REMARK       I    between atoms: C_85  and  N_100 
REMARK   37  A    between atoms: CB_87  and  CG_88 
REMARK   38  A    between atoms: CG_88  and  CD_89 
REMARK   39  A    between atoms: CD_89  and  NE_90 
REMARK       I    between atoms: NE_90  and  CZ_91 
REMARK       I    between atoms: CZ_91  and  NH1_92 
REMARK   40  A    between atoms: N_100  and  CA_101 
REMARK   41  A    between atoms: CA_101  and  CB_104 
REMARK   42  A    between atoms: CA_101  and  C_102 
REMARK       I    between atoms: C_102  and  N_109 
REMARK   43  A    between atoms: CB_104  and  CG_105 
REMARK   44  A    between atoms: N_109  and  CA_110 
REMARK   45  A    between atoms: CA_110  and  CB_113 
REMARK   46  A    between atoms: CA_110  and  C_111 
REMARK       I    between atoms: C_111  and  N_121 
REMARK   47  A    between atoms: CB_113  and  CG_114 
REMARK   48  A    between atoms: N_121  and  CA_122 
REMARK   49  A    between atoms: CA_122  and  C_123 
REMARK       I    between atoms: C_123  and  N_126 
REMARK   50  A    between atoms: N_126  and  CA_127 
REMARK   51  A    between atoms: CA_127  and  CB_130 
REMARK   52  A    between atoms: CA_127  and  C_128 
REMARK       I    between atoms: C_128  and  N_135 
REMARK   53  A    between atoms: CB_130  and  CG_131 
REMARK   54  A    between atoms: N_135  and  CA_136 
REMARK   55  A    between atoms: CA_136  and  CB_139 
REMARK   56  A    between atoms: CA_136  and  C_137 
REMARK       I    between atoms: C_137  and  N_148 
REMARK   57  A    between atoms: CB_139  and  CG_140 
REMARK   58  A    between atoms: CG_140  and  CD_141 
REMARK   59  A    between atoms: CD_141  and  CE_142 
REMARK   60  A    between atoms: CE_142  and  NZ_143 
REMARK   61  A    between atoms: N_148  and  CA_149 
REMARK   62  A    between atoms: CA_149  and  CB_152 
REMARK   63  A    between atoms: CA_149  and  C_150 
REMARK       I    between atoms: C_150  and  N_157 
REMARK   64  A    between atoms: CB_152  and  CG_153 
REMARK   65  A    between atoms: N_157  and  CA_158 
REMARK   66  A    between atoms: CA_158  and  C_159 
REMARK   67  A    between atoms: CA_158  and  CB_161 
REMARK       I    between atoms: C_159  and  N_170 
REMARK   68  A    between atoms: CB_161  and  CG_162 
REMARK   69  A    between atoms: CG_162  and  CD_163 
REMARK   70  A    between atoms: CD_163  and  CE_164 
REMARK   71  A    between atoms: CE_164  and  NZ_165 
REMARK   72  A    between atoms: N_170  and  CA_171 
REMARK   73  A    between atoms: CA_171  and  CB_174 
REMARK   74  A    between atoms: CA_171  and  C_172 
REMARK       I    between atoms: C_172  and  N_183 
REMARK   75  A    between atoms: CB_174  and  CG_175 
REMARK   76  A    between atoms: CG_175  and  CD_176 
REMARK   77  A    between atoms: CD_176  and  CE_177 
REMARK   78  A    between atoms: CE_177  and  NZ_178 
REMARK   79  A    between atoms: N_183  and  CA_184 
REMARK   80  A    between atoms: CA_184  and  CB_187 
REMARK   81  A    between atoms: CA_184  and  C_185 
REMARK   82  A    between atoms: CB_187  and  CG_188 
ROOT
ATOM      1  N   LEU     1      60.544  41.287  36.235  1.00  0.00    -0.058 N 
ATOM      2  H1  LEU     1      61.520  41.174  36.076  1.00 99.99     0.276 HD
ATOM      3  H2  LEU     1      60.313  41.003  37.149  1.00 99.99     0.276 HD
ATOM      4  H3  LEU     1      60.049  40.666  35.639  1.00 99.99     0.276 HD
ENDROOT
BRANCH   1   5
ATOM      5  CA  LEU     1      60.159  42.700  35.967  1.00  0.00     0.255 C 
BRANCH   5   6
ATOM      6  CB  LEU     1      58.704  42.797  35.471  1.00  0.00     0.040 C 
BRANCH   6   7
ATOM      7  CG  LEU     1      58.517  42.502  33.968  1.00  0.00     0.002 C 
ATOM      8  CD2 LEU     1      58.414  43.814  33.187  1.00  0.00     0.000 C 
ATOM      9  CD1 LEU     1      57.268  41.655  33.694  1.00  0.00     0.000 C 
ENDBRANCH   6   7
ENDBRANCH   5   6
BRANCH   5  10
ATOM     10  C   LEU     1      60.488  43.577  37.192  1.00  0.00     0.259 C 
ATOM     11  N   ALA     2      59.856  43.311  38.348  1.00  0.00    -0.338 N 
ATOM     12  H   ALA     2      59.076  42.686  38.357  1.00 99.99     0.164 HD
ATOM     13  O   LEU     1      61.464  44.323  37.113  1.00  0.00    -0.271 OA
BRANCH  11  14
ATOM     14  CA  ALA     2      60.129  43.911  39.680  1.00  0.00     0.159 C 
ATOM     15  CB  ALA     2      59.148  45.068  39.918  1.00  0.00     0.034 C 
BRANCH  14  16
ATOM     16  C   ALA     2      60.208  42.966  40.896  1.00  0.00     0.251 C 
ATOM     17  N   LEU     3      60.359  41.656  40.657  1.00  0.00    -0.338 N 
ATOM     18  H   LEU     3      60.233  41.299  39.733  1.00 99.99     0.164 HD
ATOM     19  O   ALA     2      60.152  43.450  42.027  1.00  0.00    -0.271 OA
BRANCH  17  20
ATOM     20  CA  LEU     3      60.607  40.603  41.666  1.00  0.00     0.159 C 
BRANCH  20  21
ATOM     21  CB  LEU     3      59.365  39.699  41.771  1.00  0.00     0.032 C 
BRANCH  21  22
ATOM     22  CG  LEU     3      58.698  39.695  43.151  1.00  0.00     0.002 C 
ATOM     23  CD2 LEU     3      57.481  40.621  43.179  1.00  0.00     0.000 C 
ATOM     24  CD1 LEU     3      59.702  40.157  44.209  1.00  0.00     0.000 C 
ENDBRANCH  21  22
ENDBRANCH  20  21
BRANCH  20  25
ATOM     25  C   LEU     3      61.853  39.732  41.419  1.00  0.00     0.251 C 
ATOM     26  N   LYS     4      63.027  40.267  41.774  1.00  0.00    -0.338 N 
ATOM     27  H   LYS     4      63.066  41.151  42.242  1.00 99.99     0.164 HD
ATOM     28  O   LEU     3      61.711  38.570  41.039  1.00  0.00    -0.271 OA
BRANCH  26  29
ATOM     29  CA  LYS     4      64.338  39.604  41.620  1.00  0.00     0.159 C 
BRANCH  29  30
ATOM     30  CB  LYS     4      65.480  40.589  41.921  1.00  0.00     0.032 C 
BRANCH  30  31
ATOM     31  CG  LYS     4      66.556  40.671  40.832  1.00  0.00     0.004 C 
BRANCH  31  32
ATOM     32  CD  LYS     4      67.655  41.660  41.239  1.00  0.00     0.032 C 
BRANCH  32  33
ATOM     33  CE  LYS     4      68.465  42.140  40.031  1.00  0.00     0.206 C 
BRANCH  33  34
ATOM     34  NZ  LYS     4      68.531  41.121  38.970  1.00  0.00    -0.064 N 
ATOM     35  HZ3 LYS     4      69.278  41.335  38.341  1.00 99.99     0.275 HD
ATOM     36  HZ1 LYS     4      68.698  40.223  39.379  1.00 99.99     0.275 HD
ATOM     37  HZ2 LYS     4      67.668  41.096  38.463  1.00 99.99     0.275 HD
ENDBRANCH  33  34
ENDBRANCH  32  33
ENDBRANCH  31  32
ENDBRANCH  30  31
ENDBRANCH  29  30
BRANCH  29  38
ATOM     38  C   LYS     4      64.521  38.368  42.521  1.00  0.00     0.251 C 
ATOM     39  N   SER     5      63.670  38.268  43.543  1.00  0.00    -0.336 N 
ATOM     40  H   SER     5      62.985  38.972  43.710  1.00 99.99     0.164 HD
ATOM     41  O   LYS     4      65.427  37.565  42.305  1.00  0.00    -0.271 OA
BRANCH  39  42
ATOM     42  CA  SER     5      63.719  37.219  44.583  1.00  0.00     0.189 C 
BRANCH  42  43
ATOM     43  CB  SER     5      64.692  37.622  45.703  1.00  0.00     0.169 C 
BRANCH  43  44
ATOM     44  OG  SER     5      64.347  38.885  46.280  1.00  0.00    -0.380 OA
ATOM     45  HG  SER     5      64.787  38.964  47.174  1.00 99.99     0.211 HD
ENDBRANCH  43  44
ENDBRANCH  42  43
BRANCH  42  46
ATOM     46  C   SER     5      62.362  36.904  45.230  1.00  0.00     0.254 C 
ATOM     47  N   GLY     6      62.403  36.415  46.481  1.00  0.00    -0.336 N 
ATOM     48  H   GLY     6      63.203  36.524  47.094  1.00 99.99     0.164 HD
ATOM     49  O   SER     5      61.317  37.074  44.603  1.00  0.00    -0.270 OA
BRANCH  47  50
ATOM     50  CA  GLY     6      61.230  35.782  47.107  1.00  0.00     0.189 C 
BRANCH  50  51
ATOM     51  C   GLY     6      60.380  36.688  47.994  1.00  0.00     0.253 C 
ATOM     52  O   GLY     6      60.202  36.428  49.187  1.00  0.00    -0.270 OA
ATOM     53  N   GLY     7      59.887  37.760  47.353  1.00  0.00    -0.336 N 
ATOM     54  H   GLY     7      60.253  38.057  46.461  1.00 99.99     0.164 HD
BRANCH  53  55
ATOM     55  CA  GLY     7      58.815  38.635  47.861  1.00  0.00     0.189 C 
BRANCH  55  56
ATOM     56  C   GLY     7      57.367  38.285  47.494  1.00  0.00     0.253 C 
ATOM     57  N   TRP     8      57.012  38.598  46.251  1.00  0.00    -0.337 N 
ATOM     58  H   TRP     8      57.729  38.753  45.561  1.00 99.99     0.164 HD
ATOM     59  O   GLY     7      56.647  37.664  48.280  1.00  0.00    -0.270 OA
BRANCH  57  60
ATOM     60  CA  TRP     8      55.640  38.721  45.730  1.00  0.00     0.164 C 
BRANCH  60  61
ATOM     61  CB  TRP     8      55.178  37.366  45.179  1.00  0.00     0.059 C 
BRANCH  61  62
ATOM     62  CG  TRP     8      56.103  36.889  44.054  1.00  0.00    -0.016 A 
ATOM     63  CD2 TRP     8      56.011  37.242  42.716  1.00  0.00    -0.001 A 
ATOM     64  CE2 TRP     8      57.035  36.577  42.063  1.00  0.00     0.042 A 
ATOM     65  CE3 TRP     8      55.160  38.090  42.019  1.00  0.00     0.014 A 
ATOM     66  CZ2 TRP     8      57.206  36.749  40.693  1.00  0.00     0.030 A 
ATOM     67  NE1 TRP     8      57.695  35.871  42.978  1.00  0.00    -0.365 N 
ATOM     68  CH2 TRP     8      56.348  37.592  39.986  1.00  0.00     0.002 A 
ATOM     69  CZ3 TRP     8      55.333  38.269  40.656  1.00  0.00     0.001 A 
ATOM     70  HE1 TRP     8      58.493  35.291  42.799  1.00 99.99     0.165 HD
ATOM     71  CD1 TRP     8      57.134  36.059  44.172  1.00  0.00     0.097 A 
ENDBRANCH  61  62
ENDBRANCH  60  61
BRANCH  60  72
ATOM     72  C   TRP     8      54.560  39.360  46.615  1.00  0.00     0.251 C 
ATOM     73  N   LEU     9      54.060  38.649  47.633  1.00  0.00    -0.338 N 
ATOM     74  H   LEU     9      54.315  37.693  47.789  1.00 99.99     0.164 HD
ATOM     75  O   TRP     8      54.306  40.557  46.458  1.00  0.00    -0.271 OA
BRANCH  73  76
ATOM     76  CA  LEU     9      53.058  39.203  48.566  1.00  0.00     0.159 C 
BRANCH  76  77
ATOM     77  C   LEU     9      53.660  39.977  49.749  1.00  0.00     0.251 C 
ATOM     78  N   ARG    10      54.943  39.725  50.029  1.00  0.00    -0.338 N 
ATOM     79  H   ARG    10      55.482  39.072  49.492  1.00 99.99     0.164 HD
ATOM     80  O   LEU     9      53.061  40.957  50.195  1.00  0.00    -0.271 OA
BRANCH  78  81
ATOM     81  CA  ARG    10      55.699  40.434  51.079  1.00  0.00     0.159 C 
BRANCH  81  82
ATOM     82  CB  ARG    10      55.403  41.940  51.072  1.00  0.00     0.034 C 
BRANCH  82  83
ATOM     83  CG  ARG    10      56.489  42.721  50.327  1.00  0.00     0.027 C 
BRANCH  83  84
ATOM     84  CD  ARG    10      56.038  43.178  48.936  1.00  0.00     0.116 C 
BRANCH  84  85
ATOM     85  NE  ARG    10      57.168  43.680  48.131  1.00  0.00    -0.212 N 
ATOM     86  CZ  ARG    10      57.638  43.135  47.004  1.00  0.00     0.666 C 
ATOM     87  NH2 ARG    10      58.753  43.592  46.453  1.00  0.00    -0.235 N 
ATOM     88  NH1 ARG    10      57.062  42.078  46.446  1.00  0.00    -0.235 N 
ATOM     89 2HH2 ARG    10      59.268  44.330  46.888  1.00 99.99     0.174 HD
ATOM     90 1HH2 ARG    10      59.100  43.159  45.624  1.00 99.99     0.174 HD
ATOM     91 1HH1 ARG    10      57.423  41.676  45.609  1.00 99.99     0.174 HD
ATOM     92 2HH1 ARG    10      56.250  41.689  46.882  1.00 99.99     0.174 HD
ATOM     93  HE  ARG    10      57.611  44.497  48.492  1.00 99.99     0.178 HD
ENDBRANCH  84  85
ENDBRANCH  83  84
ENDBRANCH  82  83
ENDBRANCH  81  82
BRANCH  81  94
ATOM     94  C   ARG    10      55.469  39.869  52.488  1.00  0.00     0.251 C 
ATOM     95  N   LEU    11      56.491  39.216  53.046  1.00  0.00    -0.338 N 
ATOM     96  H   LEU    11      57.327  39.020  52.532  1.00 99.99     0.164 HD
ATOM     97  O   ARG    10      54.412  40.097  53.074  1.00  0.00    -0.271 OA
BRANCH  95  98
ATOM     98  CA  LEU    11      56.485  38.716  54.435  1.00  0.00     0.159 C 
BRANCH  98  99
ATOM     99  CB  LEU    11      57.062  37.293  54.493  1.00  0.00     0.032 C 
BRANCH  99 100
ATOM    100  CG  LEU    11      57.709  36.829  53.181  1.00  0.00     0.002 C 
ATOM    101  CD1 LEU    11      59.228  36.791  53.354  1.00  0.00     0.000 C 
ATOM    102  CD2 LEU    11      57.204  35.442  52.768  1.00  0.00     0.000 C 
ENDBRANCH  99 100
ENDBRANCH  98  99
BRANCH  98 103
ATOM    103  C   LEU    11      57.262  39.621  55.405  1.00  0.00     0.251 C 
ATOM    104  O   LEU    11      57.830  40.631  54.995  1.00  0.00    -0.271 OA
ATOM    105  N   PHE    12      57.252  39.254  56.688  1.00  0.00    -0.337 N 
ATOM    106  H   PHE    12      56.669  38.501  57.010  1.00 99.99     0.164 HD
BRANCH 105 107
ATOM    107  CA  PHE    12      57.983  39.974  57.747  1.00  0.00     0.164 C 
BRANCH 107 108
ATOM    108  CB  PHE    12      57.014  40.697  58.685  1.00  0.00     0.056 C 
BRANCH 108 109
ATOM    109  CG  PHE    12      57.546  41.960  59.395  1.00  0.00    -0.044 A 
ATOM    110  CD1 PHE    12      58.579  41.940  60.320  1.00  0.00     0.008 A 
ATOM    111  CE1 PHE    12      58.930  43.097  60.998  1.00  0.00     0.001 A 
ATOM    112  CZ  PHE    12      58.232  44.287  60.768  1.00  0.00     0.000 A 
ATOM    113  CE2 PHE    12      57.195  44.298  59.830  1.00  0.00     0.001 A 
ATOM    114  CD2 PHE    12      56.866  43.134  59.148  1.00  0.00     0.008 A 
ENDBRANCH 108 109
ENDBRANCH 107 108
BRANCH 107 115
ATOM    115  C   PHE    12      58.908  39.091  58.606  1.00  0.00     0.251 C 
ATOM    116  O   PHE    12      58.424  38.159  59.249  1.00  0.00    -0.271 OA
ATOM    117  N   GLY    13      60.226  39.211  58.376  1.00  0.00    -0.336 N 
ATOM    118  H   GLY    13      60.621  39.852  57.699  1.00 99.99     0.164 HD
BRANCH 117 119
ATOM    119  CA  GLY    13      61.235  38.389  59.074  1.00  0.00     0.189 C 
BRANCH 119 120
ATOM    120  C   GLY    13      62.339  39.224  59.750  1.00  0.00     0.253 C 
ATOM    121  N   LEU    14      63.586  38.801  59.546  1.00  0.00    -0.337 N 
ATOM    122  H   LEU    14      63.748  37.966  59.019  1.00 99.99     0.164 HD
ATOM    123  O   GLY    13      62.057  40.125  60.540  1.00  0.00    -0.270 OA
BRANCH 121 124
ATOM    124  CA  LEU    14      64.798  39.479  60.033  1.00  0.00     0.159 C 
BRANCH 124 125
ATOM    125  CB  LEU    14      65.922  38.454  60.246  1.00  0.00     0.032 C 
BRANCH 125 126
ATOM    126  CG  LEU    14      65.760  37.166  59.429  1.00  0.00     0.002 C 
ATOM    127  CD2 LEU    14      65.450  35.959  60.322  1.00  0.00     0.000 C 
ATOM    128  CD1 LEU    14      67.041  36.906  58.636  1.00  0.00     0.000 C 
ENDBRANCH 125 126
ENDBRANCH 124 125
BRANCH 124 129
ATOM    129  C   LEU    14      65.282  40.569  59.067  1.00  0.00     0.251 C 
ATOM    130  N   LYS    15      65.250  40.213  57.784  1.00  0.00    -0.338 N 
ATOM    131  H   LYS    15      64.903  39.320  57.501  1.00 99.99     0.164 HD
ATOM    132  O   LEU    14      65.646  41.674  59.465  1.00  0.00    -0.271 OA
BRANCH 130 133
ATOM    133  CA  LYS    15      65.703  41.075  56.682  1.00  0.00     0.159 C 
BRANCH 133 134
ATOM    134  CB  LYS    15      67.228  41.265  56.739  1.00  0.00     0.032 C 
BRANCH 134 135
ATOM    135  CG  LYS    15      67.779  41.816  55.420  1.00  0.00     0.004 C 
BRANCH 135 136
ATOM    136  CD  LYS    15      68.730  42.995  55.627  1.00  0.00     0.032 C 
BRANCH 136 137
ATOM    137  CE  LYS    15      69.996  42.777  54.797  1.00  0.00     0.206 C 
BRANCH 137 138
ATOM    138  NZ  LYS    15      70.151  41.370  54.398  1.00  0.00    -0.064 N 
ATOM    139  HZ3 LYS    15      70.427  41.326  53.439  1.00 99.99     0.275 HD
ATOM    140  HZ2 LYS    15      69.284  40.889  54.524  1.00 99.99     0.275 HD
ATOM    141  HZ1 LYS    15      70.855  40.945  54.968  1.00 99.99     0.275 HD
ENDBRANCH 137 138
ENDBRANCH 136 137
ENDBRANCH 135 136
ENDBRANCH 134 135
ENDBRANCH 133 134
BRANCH 133 142
ATOM    142  C   LYS    15      65.293  40.495  55.325  1.00  0.00     0.251 C 
ATOM    143  N   ASP    16      65.792  39.287  55.088  1.00  0.00    -0.337 N 
ATOM    144  H   ASP    16      66.445  38.911  55.748  1.00 99.99     0.164 HD
ATOM    145  O   LYS    15      64.482  41.063  54.592  1.00  0.00    -0.271 OA
BRANCH 143 146
ATOM    146  CA  ASP    16      65.576  38.442  53.890  1.00  0.00     0.170 C 
BRANCH 146 147
ATOM    147  CB  ASP    16      64.100  37.994  53.789  1.00  0.00     0.129 C 
BRANCH 147 148
ATOM    148  CG  ASP    16      63.399  37.801  55.141  1.00  0.00     0.188 C 
ATOM    149  OD1 ASP    16      62.192  38.119  55.191  1.00  0.00    -0.647 OA
ATOM    150  OD2 ASP    16      63.969  37.054  55.966  1.00  0.00    -0.647 OA
ENDBRANCH 147 148
ENDBRANCH 146 147
BRANCH 146 151
ATOM    151  C   ASP    16      66.029  39.033  52.541  1.00  0.00     0.251 C 
ATOM    152  O   ASP    16      67.162  39.498  52.421  1.00  0.00    -0.271 OA
ATOM    153  N   LYS    17      65.157  38.977  51.532  1.00  0.00    -0.338 N 
ATOM    154  H   LYS    17      64.328  38.424  51.596  1.00 99.99     0.164 HD
BRANCH 153 155
ATOM    155  CA  LYS    17      65.388  39.582  50.203  1.00  0.00     0.159 C 
BRANCH 155 156
ATOM    156  C   LYS    17      64.151  40.305  49.630  1.00  0.00     0.251 C 
ATOM    157  N   LYS    18      64.099  41.615  49.878  1.00  0.00    -0.338 N 
ATOM    158  H   LYS    18      64.759  42.000  50.520  1.00 99.99     0.164 HD
ATOM    159  O   LYS    17      63.226  39.694  49.090  1.00  0.00    -0.271 OA
BRANCH 157 160
ATOM    160  CA  LYS    18      63.056  42.565  49.418  1.00  0.00     0.159 C 
BRANCH 160 161
ATOM    161  CB  LYS    18      62.721  43.597  50.500  1.00  0.00     0.032 C 
BRANCH 161 162
ATOM    162  CG  LYS    18      62.455  42.988  51.873  1.00  0.00     0.004 C 
BRANCH 162 163
ATOM    163  CD  LYS    18      61.222  42.096  51.758  1.00  0.00     0.032 C 
BRANCH 163 164
ATOM    164  CE  LYS    18      61.474  40.718  52.358  1.00  0.00     0.206 C 
BRANCH 164 165
ATOM    165  NZ  LYS    18      61.493  40.830  53.824  1.00  0.00    -0.064 N 
ATOM    166  HZ2 LYS    18      61.043  41.679  54.098  1.00 99.99     0.275 HD
ATOM    167  HZ1 LYS    18      62.437  40.825  54.148  1.00 99.99     0.275 HD
ATOM    168  HZ3 LYS    18      61.000  40.052  54.214  1.00 99.99     0.275 HD
ENDBRANCH 164 165
ENDBRANCH 163 164
ENDBRANCH 162 163
ENDBRANCH 161 162
ENDBRANCH 160 161
BRANCH 160 169
ATOM    169  C   LYS    18      63.437  43.368  48.164  1.00  0.00     0.251 C 
ATOM    170  O   LYS    18      63.866  44.519  48.249  1.00  0.00    -0.271 OA
ATOM    171  N   HIS    19      63.525  42.643  47.049  1.00  0.00    -0.336 N 
ATOM    172  H   HIS    19      63.367  41.658  47.075  1.00 99.99     0.164 HD
BRANCH 171 173
ATOM    173  CA  HIS    19      63.838  43.145  45.703  1.00  0.00     0.174 C 
BRANCH 173 174
ATOM    174  CB  HIS    19      65.099  42.370  45.274  1.00  0.00     0.078 C 
BRANCH 174 175
ATOM    175  CG  HIS    19      66.427  43.125  45.414  1.00  0.00     0.057 A 
ATOM    176  CD2 HIS    19      66.692  44.052  46.331  1.00  0.00     0.113 A 
ATOM    177  NE2 HIS    19      68.008  44.202  46.410  1.00  0.00    -0.223 NA
ATOM    178  CE1 HIS    19      68.560  43.404  45.505  1.00  0.00     0.175 A 
ATOM    179  ND1 HIS    19      67.585  42.759  44.871  1.00  0.00    -0.338 N 
ATOM    180  HD1 HIS    19      67.702  42.179  44.063  1.00 99.99     0.167 HD
ENDBRANCH 174 175
ENDBRANCH 173 174
BRANCH 173 181
ATOM    181  C   HIS    19      62.642  42.844  44.774  1.00  0.00     0.207 C 
ATOM    182  OXT HIS    19      62.919  42.720  43.562  1.00 99.99    -0.646 OA
ATOM    183  O   HIS    19      61.503  42.758  45.284  1.00 99.99    -0.646 OA
ENDBRANCH 173 181
ENDBRANCH 171 173
ENDBRANCH 160 169
ENDBRANCH 157 160
ENDBRANCH 155 156
BRANCH 155 184
ATOM    184  CB  LYS    17      65.886  38.490  49.243  1.00  0.00     0.032 C 
BRANCH 184 185
ATOM    185  CG  LYS    17      67.410  38.473  49.099  1.00  0.00     0.004 C 
BRANCH 185 186
ATOM    186  CD  LYS    17      67.928  39.868  48.758  1.00  0.00     0.032 C 
BRANCH 186 187
ATOM    187  CE  LYS    17      68.511  39.891  47.345  1.00  0.00     0.206 C 
BRANCH 187 188
ATOM    188  NZ  LYS    17      67.477  39.567  46.354  1.00  0.00    -0.064 N 
ATOM    189  HZ1 LYS    17      67.755  39.913  45.459  1.00 99.99     0.275 HD
ATOM    190  HZ3 LYS    17      66.615  39.997  46.626  1.00 99.99     0.275 HD
ATOM    191  HZ2 LYS    17      67.355  38.576  46.310  1.00 99.99     0.275 HD
ENDBRANCH 187 188
ENDBRANCH 186 187
ENDBRANCH 185 186
ENDBRANCH 184 185
ENDBRANCH 155 184
ENDBRANCH 153 155
ENDBRANCH 146 151
ENDBRANCH 143 146
ENDBRANCH 133 142
ENDBRANCH 130 133
ENDBRANCH 124 129
ENDBRANCH 121 124
ENDBRANCH 119 120
ENDBRANCH 117 119
ENDBRANCH 107 115
ENDBRANCH 105 107
ENDBRANCH  98 103
ENDBRANCH  95  98
ENDBRANCH  81  94
ENDBRANCH  78  81
ENDBRANCH  76  77
BRANCH  76 192
ATOM    192  CB  LEU     9      52.106  38.110  49.080  1.00  0.00     0.032 C 
BRANCH 192 193
ATOM    193  CG  LEU     9      52.808  36.785  49.407  1.00  0.00     0.002 C 
ATOM    194  CD2 LEU     9      51.923  35.576  49.078  1.00  0.00     0.000 C 
ATOM    195  CD1 LEU     9      53.176  36.757  50.890  1.00  0.00     0.000 C 
ENDBRANCH 192 193
ENDBRANCH  76 192
ENDBRANCH  73  76
ENDBRANCH  60  72
ENDBRANCH  57  60
ENDBRANCH  55  56
ENDBRANCH  53  55
ENDBRANCH  50  51
ENDBRANCH  47  50
ENDBRANCH  42  46
ENDBRANCH  39  42
ENDBRANCH  29  38
ENDBRANCH  26  29
ENDBRANCH  20  25
ENDBRANCH  17  20
ENDBRANCH  14  16
ENDBRANCH  11  14
ENDBRANCH   5  10
ENDBRANCH   1   5
TORSDOF 82
ENDMDL
MODEL 4
REMARK VINA RESULT:      -3.5      2.650      5.880
REMARK WARNING: 32 MAX_TORS EXCEEDED!!!
REMARK  82 active torsions:
REMARK  status: ('A' for Active; 'I' for Inactive)
REMARK    1  A    between atoms: N_1  and  CA_2 
REMARK    2  A    between atoms: CA_2  and  CB_5 
REMARK    3  A    between atoms: CA_2  and  C_3 
REMARK       I    between atoms: C_3  and  N_12 
REMARK    4  A    between atoms: CB_5  and  CG_6 
REMARK    5  A    between atoms: N_12  and  CA_13 
REMARK    6  A    between atoms: CA_13  and  C_14 
REMARK       I    between atoms: C_14  and  N_18 
REMARK    7  A    between atoms: N_18  and  CA_19 
REMARK    8  A    between atoms: CA_19  and  CB_22 
REMARK    9  A    between atoms: CA_19  and  C_20 
REMARK       I    between atoms: C_20  and  N_27 
REMARK   10  A    between atoms: CB_22  and  CG_23 
REMARK   11  A    between atoms: N_27  and  CA_28 
REMARK   12  A    between atoms: CA_28  and  CB_31 
REMARK   13  A    between atoms: CA_28  and  C_29 
REMARK       I    between atoms: C_29  and  N_40 
REMARK   14  A    between atoms: CB_31  and  CG_32 
REMARK   15  A    between atoms: CG_32  and  CD_33 
REMARK   16  A    between atoms: CD_33  and  CE_34 
REMARK   17  A    between atoms: CE_34  and  NZ_35 
REMARK   18  A    between atoms: N_40  and  CA_41 
REMARK   19  A    between atoms: CA_41  and  CB_44 
REMARK   20  A    between atoms: CA_41  and  C_42 
REMARK       I    between atoms: C_42  and  N_48 
REMARK   21  A    between atoms: CB_44  and  OG_45 
REMARK   22  A    between atoms: N_48  and  CA_49 
REMARK   23  A    between atoms: CA_49  and  C_50 
REMARK       I    between atoms: C_50  and  N_53 
REMARK   24  A    between atoms: N_53  and  CA_54 
REMARK   25  A    between atoms: CA_54  and  C_55 
REMARK       I    between atoms: C_55  and  N_58 
REMARK   26  A    between atoms: N_58  and  CA_59 
REMARK   27  A    between atoms: CA_59  and  CB_62 
REMARK   28  A    between atoms: CA_59  and  C_60 
REMARK       I    between atoms: C_60  and  N_74 
REMARK   29  A    between atoms: CB_62  and  CG_63 
REMARK   30  A    between atoms: N_74  and  CA_75 
REMARK   31  A    between atoms: CA_75  and  C_76 
REMARK   32  A    between atoms: CA_75  and  CB_78 
REMARK       I    between atoms: C_76  and  N_83 
REMARK   33  A    between atoms: CB_78  and  CG_79 
REMARK   34  A    between atoms: N_83  and  CA_84 
REMARK   35  A    between atoms: CA_84  and  CB_87 
REMARK   36  A    between atoms: CA_84  and  C_85 
REMARK       I    between atoms: C_85  and  N_100 
REMARK   37  A    between atoms: CB_87  and  CG_88 
REMARK   38  A    between atoms: CG_88  and  CD_89 
REMARK   39  A    between atoms: CD_89  and  NE_90 
REMARK       I    between atoms: NE_90  and  CZ_91 
REMARK       I    between atoms: CZ_91  and  NH1_92 
REMARK   40  A    between atoms: N_100  and  CA_101 
REMARK   41  A    between atoms: CA_101  and  CB_104 
REMARK   42  A    between atoms: CA_101  and  C_102 
REMARK       I    between atoms: C_102  and  N_109 
REMARK   43  A    between atoms: CB_104  and  CG_105 
REMARK   44  A    between atoms: N_109  and  CA_110 
REMARK   45  A    between atoms: CA_110  and  CB_113 
REMARK   46  A    between atoms: CA_110  and  C_111 
REMARK       I    between atoms: C_111  and  N_121 
REMARK   47  A    between atoms: CB_113  and  CG_114 
REMARK   48  A    between atoms: N_121  and  CA_122 
REMARK   49  A    between atoms: CA_122  and  C_123 
REMARK       I    between atoms: C_123  and  N_126 
REMARK   50  A    between atoms: N_126  and  CA_127 
REMARK   51  A    between atoms: CA_127  and  CB_130 
REMARK   52  A    between atoms: CA_127  and  C_128 
REMARK       I    between atoms: C_128  and  N_135 
REMARK   53  A    between atoms: CB_130  and  CG_131 
REMARK   54  A    between atoms: N_135  and  CA_136 
REMARK   55  A    between atoms: CA_136  and  CB_139 
REMARK   56  A    between atoms: CA_136  and  C_137 
REMARK       I    between atoms: C_137  and  N_148 
REMARK   57  A    between atoms: CB_139  and  CG_140 
REMARK   58  A    between atoms: CG_140  and  CD_141 
REMARK   59  A    between atoms: CD_141  and  CE_142 
REMARK   60  A    between atoms: CE_142  and  NZ_143 
REMARK   61  A    between atoms: N_148  and  CA_149 
REMARK   62  A    between atoms: CA_149  and  CB_152 
REMARK   63  A    between atoms: CA_149  and  C_150 
REMARK       I    between atoms: C_150  and  N_157 
REMARK   64  A    between atoms: CB_152  and  CG_153 
REMARK   65  A    between atoms: N_157  and  CA_158 
REMARK   66  A    between atoms: CA_158  and  C_159 
REMARK   67  A    between atoms: CA_158  and  CB_161 
REMARK       I    between atoms: C_159  and  N_170 
REMARK   68  A    between atoms: CB_161  and  CG_162 
REMARK   69  A    between atoms: CG_162  and  CD_163 
REMARK   70  A    between atoms: CD_163  and  CE_164 
REMARK   71  A    between atoms: CE_164  and  NZ_165 
REMARK   72  A    between atoms: N_170  and  CA_171 
REMARK   73  A    between atoms: CA_171  and  CB_174 
REMARK   74  A    between atoms: CA_171  and  C_172 
REMARK       I    between atoms: C_172  and  N_183 
REMARK   75  A    between atoms: CB_174  and  CG_175 
REMARK   76  A    between atoms: CG_175  and  CD_176 
REMARK   77  A    between atoms: CD_176  and  CE_177 
REMARK   78  A    between atoms: CE_177  and  NZ_178 
REMARK   79  A    between atoms: N_183  and  CA_184 
REMARK   80  A    between atoms: CA_184  and  CB_187 
REMARK   81  A    between atoms: CA_184  and  C_185 
REMARK   82  A    between atoms: CB_187  and  CG_188 
ROOT
ATOM      1  N   LEU     1      53.321  34.045  41.288  1.00  0.00    -0.058 N 
ATOM      2  H1  LEU     1      53.708  33.240  41.727  1.00 99.99     0.276 HD
ATOM      3  H2  LEU     1      52.669  33.776  40.601  1.00 99.99     0.276 HD
ATOM      4  H3  LEU     1      54.040  34.516  40.791  1.00 99.99     0.276 HD
ENDROOT
BRANCH   1   5
ATOM      5  CA  LEU     1      52.720  34.933  42.321  1.00  0.00     0.255 C 
BRANCH   5   6
ATOM      6  CB  LEU     1      51.441  34.312  42.915  1.00  0.00     0.040 C 
BRANCH   6   7
ATOM      7  CG  LEU     1      50.126  34.910  42.375  1.00  0.00     0.002 C 
ATOM      8  CD2 LEU     1      50.315  35.362  40.925  1.00  0.00     0.000 C 
ATOM      9  CD1 LEU     1      49.642  36.100  43.212  1.00  0.00     0.000 C 
ENDBRANCH   6   7
ENDBRANCH   5   6
BRANCH   5  10
ATOM     10  C   LEU     1      53.789  35.334  43.357  1.00  0.00     0.259 C 
ATOM     11  N   ALA     2      53.793  36.601  43.805  1.00  0.00    -0.338 N 
ATOM     12  H   ALA     2      53.237  37.293  43.346  1.00 99.99     0.164 HD
ATOM     13  O   LEU     1      54.437  34.430  43.885  1.00  0.00    -0.271 OA
BRANCH  11  14
ATOM     14  CA  ALA     2      54.615  37.163  44.908  1.00  0.00     0.159 C 
ATOM     15  CB  ALA     2      54.990  38.612  44.564  1.00  0.00     0.034 C 
BRANCH  14  16
ATOM     16  C   ALA     2      54.078  37.035  46.348  1.00  0.00     0.251 C 
ATOM     17  N   LEU     3      54.963  36.775  47.321  1.00  0.00    -0.338 N 
ATOM     18  H   LEU     3      55.891  36.490  47.090  1.00 99.99     0.164 HD
ATOM     19  O   ALA     2      52.874  37.196  46.548  1.00  0.00    -0.271 OA
BRANCH  17  20
ATOM     20  CA  LEU     3      54.689  36.763  48.775  1.00  0.00     0.159 C 
BRANCH  20  21
ATOM     21  CB  LEU     3      55.832  36.029  49.500  1.00  0.00     0.032 C 
BRANCH  21  22
ATOM     22  CG  LEU     3      55.378  34.856  50.375  1.00  0.00     0.002 C 
ATOM     23  CD2 LEU     3      53.863  34.871  50.578  1.00  0.00     0.000 C 
ATOM     24  CD1 LEU     3      56.067  34.936  51.739  1.00  0.00     0.000 C 
ENDBRANCH  21  22
ENDBRANCH  20  21
BRANCH  20  25
ATOM     25  C   LEU     3      54.481  38.146  49.419  1.00  0.00     0.251 C 
ATOM     26  N   LYS     4      53.240  38.644  49.361  1.00  0.00    -0.338 N 
ATOM     27  H   LYS     4      52.487  38.100  48.984  1.00 99.99     0.164 HD
ATOM     28  O   LEU     3      55.401  38.661  50.052  1.00  0.00    -0.271 OA
BRANCH  26  29
ATOM     29  CA  LYS     4      52.827  39.950  49.912  1.00  0.00     0.159 C 
BRANCH  29  30
ATOM     30  CB  LYS     4      52.670  39.868  51.439  1.00  0.00     0.032 C 
BRANCH  30  31
ATOM     31  CG  LYS     4      51.366  39.214  51.913  1.00  0.00     0.004 C 
BRANCH  31  32
ATOM     32  CD  LYS     4      51.631  37.786  52.403  1.00  0.00     0.032 C 
BRANCH  32  33
ATOM     33  CE  LYS     4      50.606  37.344  53.452  1.00  0.00     0.206 C 
BRANCH  33  34
ATOM     34  NZ  LYS     4      49.827  38.479  53.974  1.00  0.00    -0.064 N 
ATOM     35  HZ3 LYS     4      48.854  38.332  53.794  1.00 99.99     0.275 HD
ATOM     36  HZ1 LYS     4      49.966  38.552  54.963  1.00 99.99     0.275 HD
ATOM     37  HZ2 LYS     4      50.120  39.329  53.536  1.00 99.99     0.275 HD
ENDBRANCH  33  34
ENDBRANCH  32  33
ENDBRANCH  31  32
ENDBRANCH  30  31
ENDBRANCH  29  30
BRANCH  29  38
ATOM     38  C   LYS     4      53.802  41.098  49.592  1.00  0.00     0.251 C 
ATOM     39  N   SER     5      54.462  41.603  50.635  1.00  0.00    -0.336 N 
ATOM     40  H   SER     5      54.299  41.262  51.558  1.00 99.99     0.164 HD
ATOM     41  O   LYS     4      53.914  41.523  48.442  1.00  0.00    -0.271 OA
BRANCH  39  42
ATOM     42  CA  SER     5      55.374  42.764  50.576  1.00  0.00     0.189 C 
BRANCH  42  43
ATOM     43  CB  SER     5      55.787  43.192  51.993  1.00  0.00     0.169 C 
BRANCH  43  44
ATOM     44  OG  SER     5      56.274  42.089  52.763  1.00  0.00    -0.380 OA
ATOM     45  HG  SER     5      55.681  41.299  52.611  1.00 99.99     0.211 HD
ENDBRANCH  43  44
ENDBRANCH  42  43
BRANCH  42  46
ATOM     46  C   SER     5      56.657  42.521  49.767  1.00  0.00     0.254 C 
ATOM     47  N   GLY     6      56.721  43.125  48.567  1.00  0.00    -0.336 N 
ATOM     48  H   GLY     6      56.149  43.922  48.315  1.00 99.99     0.164 HD
ATOM     49  O   SER     5      57.543  41.789  50.205  1.00  0.00    -0.270 OA
BRANCH  47  50
ATOM     50  CA  GLY     6      57.726  42.745  47.559  1.00  0.00     0.189 C 
BRANCH  50  51
ATOM     51  C   GLY     6      57.185  42.062  46.306  1.00  0.00     0.253 C 
ATOM     52  O   GLY     6      56.252  41.257  46.371  1.00  0.00    -0.270 OA
ATOM     53  N   GLY     7      57.807  42.439  45.176  1.00  0.00    -0.336 N 
ATOM     54  H   GLY     7      58.384  43.265  45.141  1.00 99.99     0.164 HD
BRANCH  53  55
ATOM     55  CA  GLY     7      57.703  41.747  43.878  1.00  0.00     0.189 C 
BRANCH  55  56
ATOM     56  C   GLY     7      58.579  40.507  43.654  1.00  0.00     0.253 C 
ATOM     57  N   TRP     8      58.434  39.926  42.467  1.00  0.00    -0.337 N 
ATOM     58  H   TRP     8      58.025  40.450  41.711  1.00 99.99     0.164 HD
ATOM     59  O   GLY     7      59.420  40.166  44.490  1.00  0.00    -0.270 OA
BRANCH  57  60
ATOM     60  CA  TRP     8      58.844  38.560  42.098  1.00  0.00     0.164 C 
BRANCH  60  61
ATOM     61  CB  TRP     8      57.907  37.545  42.766  1.00  0.00     0.059 C 
BRANCH  61  62
ATOM     62  CG  TRP     8      58.695  36.566  43.642  1.00  0.00    -0.016 A 
ATOM     63  CD2 TRP     8      58.784  36.599  45.026  1.00  0.00    -0.001 A 
ATOM     64  CE2 TRP     8      59.600  35.541  45.392  1.00  0.00     0.042 A 
ATOM     65  CE3 TRP     8      58.218  37.422  45.990  1.00  0.00     0.014 A 
ATOM     66  CZ2 TRP     8      59.865  35.308  46.737  1.00  0.00     0.030 A 
ATOM     67  NE1 TRP     8      59.967  34.919  44.274  1.00  0.00    -0.365 N 
ATOM     68  CH2 TRP     8      59.307  36.139  47.710  1.00  0.00     0.002 A 
ATOM     69  CZ3 TRP     8      58.475  37.188  47.331  1.00  0.00     0.001 A 
ATOM     70  HE1 TRP     8      60.556  34.110  44.227  1.00 99.99     0.165 HD
ATOM     71  CD1 TRP     8      59.424  35.535  43.226  1.00  0.00     0.097 A 
ENDBRANCH  61  62
ENDBRANCH  60  61
BRANCH  60  72
ATOM     72  C   TRP     8      59.069  38.221  40.618  1.00  0.00     0.251 C 
ATOM     73  N   LEU     9      58.714  39.121  39.693  1.00  0.00    -0.338 N 
ATOM     74  H   LEU     9      58.243  39.973  39.932  1.00 99.99     0.164 HD
ATOM     75  O   TRP     8      59.711  37.207  40.339  1.00  0.00    -0.271 OA
BRANCH  73  76
ATOM     76  CA  LEU     9      58.943  38.903  38.250  1.00  0.00     0.159 C 
BRANCH  76  77
ATOM     77  C   LEU     9      60.314  39.384  37.750  1.00  0.00     0.251 C 
ATOM     78  N   ARG    10      61.383  38.840  38.340  1.00  0.00    -0.338 N 
ATOM     79  H   ARG    10      61.292  38.151  39.064  1.00 99.99     0.164 HD
ATOM     80  O   LEU     9      60.384  40.006  36.688  1.00  0.00    -0.271 OA
BRANCH  78  81
ATOM     81  CA  ARG    10      62.771  39.127  37.931  1.00  0.00     0.159 C 
BRANCH  81  82
ATOM     82  CB  ARG    10      63.101  38.504  36.568  1.00  0.00     0.034 C 
BRANCH  82  83
ATOM     83  CG  ARG    10      64.597  38.205  36.437  1.00  0.00     0.027 C 
BRANCH  83  84
ATOM     84  CD  ARG    10      65.089  37.188  37.472  1.00  0.00     0.116 C 
BRANCH  84  85
ATOM     85  NE  ARG    10      64.471  35.863  37.276  1.00  0.00    -0.212 N 
ATOM     86  CZ  ARG    10      63.660  35.235  38.133  1.00  0.00     0.666 C 
ATOM     87  NH2 ARG    10      63.289  33.982  37.909  1.00  0.00    -0.235 N 
ATOM     88  NH1 ARG    10      63.266  35.802  39.266  1.00  0.00    -0.235 N 
ATOM     89 2HH2 ARG    10      63.632  33.486  37.113  1.00 99.99     0.174 HD
ATOM     90 1HH2 ARG    10      62.700  33.524  38.572  1.00 99.99     0.174 HD
ATOM     91 1HH1 ARG    10      62.665  35.325  39.900  1.00 99.99     0.174 HD
ATOM     92 2HH1 ARG    10      63.583  36.729  39.472  1.00 99.99     0.174 HD
ATOM     93  HE  ARG    10      64.710  35.411  36.419  1.00 99.99     0.178 HD
ENDBRANCH  84  85
ENDBRANCH  83  84
ENDBRANCH  82  83
ENDBRANCH  81  82
BRANCH  81  94
ATOM     94  C   ARG    10      63.105  40.625  37.908  1.00  0.00     0.251 C 
ATOM     95  N   LEU    11      62.985  41.249  36.733  1.00  0.00    -0.338 N 
ATOM     96  H   LEU    11      62.785  40.742  35.894  1.00 99.99     0.164 HD
ATOM     97  O   ARG    10      63.385  41.206  38.956  1.00  0.00    -0.271 OA
BRANCH  95  98
ATOM     98  CA  LEU    11      63.148  42.705  36.557  1.00  0.00     0.159 C 
BRANCH  98  99
ATOM     99  CB  LEU    11      63.387  43.040  35.076  1.00  0.00     0.032 C 
BRANCH  99 100
ATOM    100  CG  LEU    11      62.101  43.149  34.247  1.00  0.00     0.002 C 
ATOM    101  CD1 LEU    11      62.226  44.323  33.275  1.00  0.00     0.000 C 
ATOM    102  CD2 LEU    11      61.828  41.860  33.463  1.00  0.00     0.000 C 
ENDBRANCH  99 100
ENDBRANCH  98  99
BRANCH  98 103
ATOM    103  C   LEU    11      61.946  43.512  37.074  1.00  0.00     0.251 C 
ATOM    104  O   LEU    11      61.945  44.740  37.007  1.00  0.00    -0.271 OA
ATOM    105  N   PHE    12      60.926  42.804  37.562  1.00  0.00    -0.337 N 
ATOM    106  H   PHE    12      60.902  41.803  37.480  1.00 99.99     0.164 HD
BRANCH 105 107
ATOM    107  CA  PHE    12      59.716  43.412  38.146  1.00  0.00     0.164 C 
BRANCH 107 108
ATOM    108  CB  PHE    12      58.466  42.998  37.366  1.00  0.00     0.056 C 
BRANCH 108 109
ATOM    109  CG  PHE    12      58.411  43.402  35.877  1.00  0.00    -0.044 A 
ATOM    110  CD1 PHE    12      58.199  42.498  34.846  1.00  0.00     0.008 A 
ATOM    111  CE1 PHE    12      58.272  42.917  33.526  1.00  0.00     0.001 A 
ATOM    112  CZ  PHE    12      58.579  44.248  33.226  1.00  0.00     0.000 A 
ATOM    113  CE2 PHE    12      58.786  45.152  34.273  1.00  0.00     0.001 A 
ATOM    114  CD2 PHE    12      58.695  44.721  35.589  1.00  0.00     0.008 A 
ENDBRANCH 108 109
ENDBRANCH 107 108
BRANCH 107 115
ATOM    115  C   PHE    12      59.481  43.083  39.632  1.00  0.00     0.251 C 
ATOM    116  O   PHE    12      58.815  42.091  39.931  1.00  0.00    -0.271 OA
ATOM    117  N   GLY    13      60.257  43.733  40.514  1.00  0.00    -0.336 N 
ATOM    118  H   GLY    13      60.950  44.423  40.251  1.00 99.99     0.164 HD
BRANCH 117 119
ATOM    119  CA  GLY    13      60.193  43.482  41.968  1.00  0.00     0.189 C 
BRANCH 119 120
ATOM    120  C   GLY    13      61.225  42.448  42.454  1.00  0.00     0.253 C 
ATOM    121  N   LEU    14      62.039  42.860  43.426  1.00  0.00    -0.337 N 
ATOM    122  H   LEU    14      61.980  43.801  43.758  1.00 99.99     0.164 HD
ATOM    123  O   GLY    13      61.368  41.374  41.870  1.00  0.00    -0.270 OA
BRANCH 121 124
ATOM    124  CA  LEU    14      63.052  42.023  44.090  1.00  0.00     0.159 C 
BRANCH 124 125
ATOM    125  CB  LEU    14      64.313  42.853  44.373  1.00  0.00     0.032 C 
BRANCH 125 126
ATOM    126  CG  LEU    14      65.503  42.033  44.887  1.00  0.00     0.002 C 
ATOM    127  CD2 LEU    14      66.698  42.923  45.244  1.00  0.00     0.000 C 
ATOM    128  CD1 LEU    14      65.916  41.018  43.819  1.00  0.00     0.000 C 
ENDBRANCH 125 126
ENDBRANCH 124 125
BRANCH 124 129
ATOM    129  C   LEU    14      62.536  41.421  45.404  1.00  0.00     0.251 C 
ATOM    130  N   LYS    15      61.852  42.275  46.163  1.00  0.00    -0.338 N 
ATOM    131  H   LYS    15      61.674  43.210  45.863  1.00 99.99     0.164 HD
ATOM    132  O   LEU    14      62.735  40.244  45.701  1.00  0.00    -0.271 OA
BRANCH 130 133
ATOM    133  CA  LYS    15      61.296  41.936  47.482  1.00  0.00     0.159 C 
BRANCH 133 134
ATOM    134  CB  LYS    15      60.968  40.435  47.559  1.00  0.00     0.032 C 
BRANCH 134 135
ATOM    135  CG  LYS    15      59.898  40.143  48.615  1.00  0.00     0.004 C 
BRANCH 135 136
ATOM    136  CD  LYS    15      60.410  39.240  49.737  1.00  0.00     0.032 C 
BRANCH 136 137
ATOM    137  CE  LYS    15      61.733  38.601  49.311  1.00  0.00     0.206 C 
BRANCH 137 138
ATOM    138  NZ  LYS    15      62.818  38.914  50.252  1.00  0.00    -0.064 N 
ATOM    139  HZ3 LYS    15      62.427  39.244  51.111  1.00 99.99     0.275 HD
ATOM    140  HZ2 LYS    15      63.411  39.616  49.858  1.00 99.99     0.275 HD
ATOM    141  HZ1 LYS    15      63.350  38.085  50.424  1.00 99.99     0.275 HD
ENDBRANCH 137 138
ENDBRANCH 136 137
ENDBRANCH 135 136
ENDBRANCH 134 135
ENDBRANCH 133 134
BRANCH 133 142
ATOM    142  C   LYS    15      62.264  42.323  48.603  1.00  0.00     0.251 C 
ATOM    143  N   ASP    16      61.903  43.414  49.269  1.00  0.00    -0.337 N 
ATOM    144  H   ASP    16      61.109  43.926  48.936  1.00 99.99     0.164 HD
ATOM    145  O   LYS    15      63.219  41.609  48.915  1.00  0.00    -0.271 OA
BRANCH 143 146
ATOM    146  CA  ASP    16      62.599  44.043  50.415  1.00  0.00     0.170 C 
BRANCH 146 147
ATOM    147  CB  ASP    16      62.540  45.585  50.319  1.00  0.00     0.129 C 
BRANCH 147 148
ATOM    148  CG  ASP    16      63.770  46.230  49.666  1.00  0.00     0.188 C 
ATOM    149  OD1 ASP    16      64.788  45.511  49.567  1.00  0.00    -0.647 OA
ATOM    150  OD2 ASP    16      63.571  47.269  49.001  1.00  0.00    -0.647 OA
ENDBRANCH 147 148
ENDBRANCH 146 147
BRANCH 146 151
ATOM    151  C   ASP    16      62.151  43.597  51.821  1.00  0.00     0.251 C 
ATOM    152  O   ASP    16      61.905  44.437  52.685  1.00  0.00    -0.271 OA
ATOM    153  N   LYS    17      62.013  42.284  52.023  1.00  0.00    -0.338 N 
ATOM    154  H   LYS    17      62.025  41.639  51.262  1.00 99.99     0.164 HD
BRANCH 153 155
ATOM    155  CA  LYS    17      61.688  41.680  53.333  1.00  0.00     0.159 C 
BRANCH 155 156
ATOM    156  C   LYS    17      62.912  41.515  54.258  1.00  0.00     0.251 C 
ATOM    157  N   LYS    18      63.659  40.435  54.016  1.00  0.00    -0.338 N 
ATOM    158  H   LYS    18      63.309  39.753  53.378  1.00 99.99     0.164 HD
ATOM    159  O   LYS    17      63.113  42.258  55.221  1.00  0.00    -0.271 OA
BRANCH 157 160
ATOM    160  CA  LYS    18      64.909  40.047  54.714  1.00  0.00     0.159 C 
BRANCH 160 161
ATOM    161  CB  LYS    18      64.615  39.243  55.985  1.00  0.00     0.032 C 
BRANCH 161 162
ATOM    162  CG  LYS    18      63.472  38.245  55.833  1.00  0.00     0.004 C 
BRANCH 162 163
ATOM    163  CD  LYS    18      63.851  36.980  56.597  1.00  0.00     0.032 C 
BRANCH 163 164
ATOM    164  CE  LYS    18      62.807  36.633  57.652  1.00  0.00     0.206 C 
BRANCH 164 165
ATOM    165  NZ  LYS    18      63.148  35.335  58.254  1.00  0.00    -0.064 N 
ATOM    166  HZ2 LYS    18      63.008  35.380  59.242  1.00 99.99     0.275 HD
ATOM    167  HZ1 LYS    18      64.100  35.113  58.054  1.00 99.99     0.275 HD
ATOM    168  HZ3 LYS    18      62.551  34.632  57.866  1.00 99.99     0.275 HD
ENDBRANCH 164 165
ENDBRANCH 163 164
ENDBRANCH 162 163
ENDBRANCH 161 162
ENDBRANCH 160 161
BRANCH 160 169
ATOM    169  C   LYS    18      65.863  39.183  53.873  1.00  0.00     0.251 C 
ATOM    170  O   LYS    18      66.965  38.843  54.305  1.00  0.00    -0.271 OA
ATOM    171  N   HIS    19      65.304  38.626  52.800  1.00  0.00    -0.336 N 
ATOM    172  H   HIS    19      64.335  38.768  52.606  1.00 99.99     0.164 HD
BRANCH 171 173
ATOM    173  CA  HIS    19      65.978  37.782  51.803  1.00  0.00     0.174 C 
BRANCH 173 174
ATOM    174  CB  HIS    19      66.883  38.748  51.013  1.00  0.00     0.078 C 
BRANCH 174 175
ATOM    175  CG  HIS    19      66.386  39.136  49.615  1.00  0.00     0.057 A 
ATOM    176  CD2 HIS    19      66.706  40.253  48.968  1.00  0.00     0.113 A 
ATOM    177  NE2 HIS    19      66.433  40.088  47.680  1.00  0.00    -0.223 NA
ATOM    178  CE1 HIS    19      65.896  38.883  47.534  1.00  0.00     0.175 A 
ATOM    179  ND1 HIS    19      65.840  38.306  48.731  1.00  0.00    -0.338 N 
ATOM    180  HD1 HIS    19      65.379  37.442  48.938  1.00 99.99     0.167 HD
ENDBRANCH 174 175
ENDBRANCH 173 174
BRANCH 173 181
ATOM    181  C   HIS    19      66.802  36.707  52.543  1.00  0.00     0.207 C 
ATOM    182  OXT HIS    19      68.042  36.785  52.401  1.00 99.99    -0.646 OA
ATOM    183  O   HIS    19      66.189  35.845  53.210  1.00 99.99    -0.646 OA
ENDBRANCH 173 181
ENDBRANCH 171 173
ENDBRANCH 160 169
ENDBRANCH 157 160
ENDBRANCH 155 156
BRANCH 155 184
ATOM    184  CB  LYS    17      60.988  40.332  53.095  1.00  0.00     0.032 C 
BRANCH 184 185
ATOM    185  CG  LYS    17      59.489  40.377  53.400  1.00  0.00     0.004 C 
BRANCH 185 186
ATOM    186  CD  LYS    17      59.248  40.243  54.902  1.00  0.00     0.032 C 
BRANCH 186 187
ATOM    187  CE  LYS    17      57.796  39.850  55.177  1.00  0.00     0.206 C 
BRANCH 187 188
ATOM    188  NZ  LYS    17      57.104  39.522  53.924  1.00  0.00    -0.064 N 
ATOM    189  HZ1 LYS    17      56.135  39.752  54.010  1.00 99.99     0.275 HD
ATOM    190  HZ3 LYS    17      57.201  38.543  53.742  1.00 99.99     0.275 HD
ATOM    191  HZ2 LYS    17      57.508  40.042  53.172  1.00 99.99     0.275 HD
ENDBRANCH 187 188
ENDBRANCH 186 187
ENDBRANCH 185 186
ENDBRANCH 184 185
ENDBRANCH 155 184
ENDBRANCH 153 155
ENDBRANCH 146 151
ENDBRANCH 143 146
ENDBRANCH 133 142
ENDBRANCH 130 133
ENDBRANCH 124 129
ENDBRANCH 121 124
ENDBRANCH 119 120
ENDBRANCH 117 119
ENDBRANCH 107 115
ENDBRANCH 105 107
ENDBRANCH  98 103
ENDBRANCH  95  98
ENDBRANCH  81  94
ENDBRANCH  78  81
ENDBRANCH  76  77
BRANCH  76 192
ATOM    192  CB  LEU     9      57.823  39.532  37.403  1.00  0.00     0.032 C 
BRANCH 192 193
ATOM    193  CG  LEU     9      56.784  38.518  36.907  1.00  0.00     0.002 C 
ATOM    194  CD2 LEU     9      55.863  38.044  38.038  1.00  0.00     0.000 C 
ATOM    195  CD1 LEU     9      57.499  37.312  36.297  1.00  0.00     0.000 C 
ENDBRANCH 192 193
ENDBRANCH  76 192
ENDBRANCH  73  76
ENDBRANCH  60  72
ENDBRANCH  57  60
ENDBRANCH  55  56
ENDBRANCH  53  55
ENDBRANCH  50  51
ENDBRANCH  47  50
ENDBRANCH  42  46
ENDBRANCH  39  42
ENDBRANCH  29  38
ENDBRANCH  26  29
ENDBRANCH  20  25
ENDBRANCH  17  20
ENDBRANCH  14  16
ENDBRANCH  11  14
ENDBRANCH   5  10
ENDBRANCH   1   5
TORSDOF 82
ENDMDL
MODEL 5
REMARK VINA RESULT:      -3.5      2.569      5.582
REMARK WARNING: 32 MAX_TORS EXCEEDED!!!
REMARK  82 active torsions:
REMARK  status: ('A' for Active; 'I' for Inactive)
REMARK    1  A    between atoms: N_1  and  CA_2 
REMARK    2  A    between atoms: CA_2  and  CB_5 
REMARK    3  A    between atoms: CA_2  and  C_3 
REMARK       I    between atoms: C_3  and  N_12 
REMARK    4  A    between atoms: CB_5  and  CG_6 
REMARK    5  A    between atoms: N_12  and  CA_13 
REMARK    6  A    between atoms: CA_13  and  C_14 
REMARK       I    between atoms: C_14  and  N_18 
REMARK    7  A    between atoms: N_18  and  CA_19 
REMARK    8  A    between atoms: CA_19  and  CB_22 
REMARK    9  A    between atoms: CA_19  and  C_20 
REMARK       I    between atoms: C_20  and  N_27 
REMARK   10  A    between atoms: CB_22  and  CG_23 
REMARK   11  A    between atoms: N_27  and  CA_28 
REMARK   12  A    between atoms: CA_28  and  CB_31 
REMARK   13  A    between atoms: CA_28  and  C_29 
REMARK       I    between atoms: C_29  and  N_40 
REMARK   14  A    between atoms: CB_31  and  CG_32 
REMARK   15  A    between atoms: CG_32  and  CD_33 
REMARK   16  A    between atoms: CD_33  and  CE_34 
REMARK   17  A    between atoms: CE_34  and  NZ_35 
REMARK   18  A    between atoms: N_40  and  CA_41 
REMARK   19  A    between atoms: CA_41  and  CB_44 
REMARK   20  A    between atoms: CA_41  and  C_42 
REMARK       I    between atoms: C_42  and  N_48 
REMARK   21  A    between atoms: CB_44  and  OG_45 
REMARK   22  A    between atoms: N_48  and  CA_49 
REMARK   23  A    between atoms: CA_49  and  C_50 
REMARK       I    between atoms: C_50  and  N_53 
REMARK   24  A    between atoms: N_53  and  CA_54 
REMARK   25  A    between atoms: CA_54  and  C_55 
REMARK       I    between atoms: C_55  and  N_58 
REMARK   26  A    between atoms: N_58  and  CA_59 
REMARK   27  A    between atoms: CA_59  and  CB_62 
REMARK   28  A    between atoms: CA_59  and  C_60 
REMARK       I    between atoms: C_60  and  N_74 
REMARK   29  A    between atoms: CB_62  and  CG_63 
REMARK   30  A    between atoms: N_74  and  CA_75 
REMARK   31  A    between atoms: CA_75  and  C_76 
REMARK   32  A    between atoms: CA_75  and  CB_78 
REMARK       I    between atoms: C_76  and  N_83 
REMARK   33  A    between atoms: CB_78  and  CG_79 
REMARK   34  A    between atoms: N_83  and  CA_84 
REMARK   35  A    between atoms: CA_84  and  CB_87 
REMARK   36  A    between atoms: CA_84  and  C_85 
REMARK       I    between atoms: C_85  and  N_100 
REMARK   37  A    between atoms: CB_87  and  CG_88 
REMARK   38  A    between atoms: CG_88  and  CD_89 
REMARK   39  A    between atoms: CD_89  and  NE_90 
REMARK       I    between atoms: NE_90  and  CZ_91 
REMARK       I    between atoms: CZ_91  and  NH1_92 
REMARK   40  A    between atoms: N_100  and  CA_101 
REMARK   41  A    between atoms: CA_101  and  CB_104 
REMARK   42  A    between atoms: CA_101  and  C_102 
REMARK       I    between atoms: C_102  and  N_109 
REMARK   43  A    between atoms: CB_104  and  CG_105 
REMARK   44  A    between atoms: N_109  and  CA_110 
REMARK   45  A    between atoms: CA_110  and  CB_113 
REMARK   46  A    between atoms: CA_110  and  C_111 
REMARK       I    between atoms: C_111  and  N_121 
REMARK   47  A    between atoms: CB_113  and  CG_114 
REMARK   48  A    between atoms: N_121  and  CA_122 
REMARK   49  A    between atoms: CA_122  and  C_123 
REMARK       I    between atoms: C_123  and  N_126 
REMARK   50  A    between atoms: N_126  and  CA_127 
REMARK   51  A    between atoms: CA_127  and  CB_130 
REMARK   52  A    between atoms: CA_127  and  C_128 
REMARK       I    between atoms: C_128  and  N_135 
REMARK   53  A    between atoms: CB_130  and  CG_131 
REMARK   54  A    between atoms: N_135  and  CA_136 
REMARK   55  A    between atoms: CA_136  and  CB_139 
REMARK   56  A    between atoms: CA_136  and  C_137 
REMARK       I    between atoms: C_137  and  N_148 
REMARK   57  A    between atoms: CB_139  and  CG_140 
REMARK   58  A    between atoms: CG_140  and  CD_141 
REMARK   59  A    between atoms: CD_141  and  CE_142 
REMARK   60  A    between atoms: CE_142  and  NZ_143 
REMARK   61  A    between atoms: N_148  and  CA_149 
REMARK   62  A    between atoms: CA_149  and  CB_152 
REMARK   63  A    between atoms: CA_149  and  C_150 
REMARK       I    between atoms: C_150  and  N_157 
REMARK   64  A    between atoms: CB_152  and  CG_153 
REMARK   65  A    between atoms: N_157  and  CA_158 
REMARK   66  A    between atoms: CA_158  and  C_159 
REMARK   67  A    between atoms: CA_158  and  CB_161 
REMARK       I    between atoms: C_159  and  N_170 
REMARK   68  A    between atoms: CB_161  and  CG_162 
REMARK   69  A    between atoms: CG_162  and  CD_163 
REMARK   70  A    between atoms: CD_163  and  CE_164 
REMARK   71  A    between atoms: CE_164  and  NZ_165 
REMARK   72  A    between atoms: N_170  and  CA_171 
REMARK   73  A    between atoms: CA_171  and  CB_174 
REMARK   74  A    between atoms: CA_171  and  C_172 
REMARK       I    between atoms: C_172  and  N_183 
REMARK   75  A    between atoms: CB_174  and  CG_175 
REMARK   76  A    between atoms: CG_175  and  CD_176 
REMARK   77  A    between atoms: CD_176  and  CE_177 
REMARK   78  A    between atoms: CE_177  and  NZ_178 
REMARK   79  A    between atoms: N_183  and  CA_184 
REMARK   80  A    between atoms: CA_184  and  CB_187 
REMARK   81  A    between atoms: CA_184  and  C_185 
REMARK   82  A    between atoms: CB_187  and  CG_188 
ROOT
ATOM      1  N   LEU     1      46.517  38.655  50.985  1.00  0.00    -0.058 N 
ATOM      2  H1  LEU     1      46.825  39.140  50.172  1.00 99.99     0.276 HD
ATOM      3  H2  LEU     1      45.570  38.402  50.893  1.00 99.99     0.276 HD
ATOM      4  H3  LEU     1      46.544  39.277  51.759  1.00 99.99     0.276 HD
ENDROOT
BRANCH   1   5
ATOM      5  CA  LEU     1      47.397  37.476  51.222  1.00  0.00     0.255 C 
BRANCH   5   6
ATOM      6  CB  LEU     1      46.623  36.332  51.904  1.00  0.00     0.040 C 
BRANCH   6   7
ATOM      7  CG  LEU     1      45.412  36.787  52.742  1.00  0.00     0.002 C 
ATOM      8  CD2 LEU     1      45.855  37.100  54.173  1.00  0.00     0.000 C 
ATOM      9  CD1 LEU     1      44.302  35.728  52.781  1.00  0.00     0.000 C 
ENDBRANCH   6   7
ENDBRANCH   5   6
BRANCH   5  10
ATOM     10  C   LEU     1      48.117  37.086  49.915  1.00  0.00     0.259 C 
ATOM     11  N   ALA     2      49.109  36.183  49.984  1.00  0.00    -0.338 N 
ATOM     12  H   ALA     2      49.478  35.916  50.874  1.00 99.99     0.164 HD
ATOM     13  O   LEU     1      47.606  37.447  48.854  1.00  0.00    -0.271 OA
BRANCH  11  14
ATOM     14  CA  ALA     2      49.825  35.543  48.849  1.00  0.00     0.159 C 
ATOM     15  CB  ALA     2      48.798  34.870  47.928  1.00  0.00     0.034 C 
BRANCH  14  16
ATOM     16  C   ALA     2      50.834  36.398  48.057  1.00  0.00     0.251 C 
ATOM     17  N   LEU     3      52.137  36.121  48.208  1.00  0.00    -0.338 N 
ATOM     18  H   LEU     3      52.438  35.518  48.945  1.00 99.99     0.164 HD
ATOM     19  O   ALA     2      50.407  37.278  47.309  1.00  0.00    -0.271 OA
BRANCH  17  20
ATOM     20  CA  LEU     3      53.254  36.709  47.437  1.00  0.00     0.159 C 
BRANCH  20  21
ATOM     21  CB  LEU     3      53.140  36.270  45.965  1.00  0.00     0.032 C 
BRANCH  21  22
ATOM     22  CG  LEU     3      53.303  34.763  45.738  1.00  0.00     0.002 C 
ATOM     23  CD2 LEU     3      54.506  34.215  46.508  1.00  0.00     0.000 C 
ATOM     24  CD1 LEU     3      53.496  34.486  44.245  1.00  0.00     0.000 C 
ENDBRANCH  21  22
ENDBRANCH  20  21
BRANCH  20  25
ATOM     25  C   LEU     3      53.368  38.242  47.505  1.00  0.00     0.251 C 
ATOM     26  N   LYS     4      52.977  38.814  48.650  1.00  0.00    -0.338 N 
ATOM     27  H   LYS     4      52.701  38.254  49.434  1.00 99.99     0.164 HD
ATOM     28  O   LEU     3      53.916  38.848  46.584  1.00  0.00    -0.271 OA
BRANCH  26  29
ATOM     29  CA  LYS     4      53.001  40.266  48.922  1.00  0.00     0.159 C 
BRANCH  29  30
ATOM     30  CB  LYS     4      52.109  40.605  50.128  1.00  0.00     0.032 C 
BRANCH  30  31
ATOM     31  CG  LYS     4      51.257  39.438  50.641  1.00  0.00     0.004 C 
BRANCH  31  32
ATOM     32  CD  LYS     4      51.910  38.800  51.873  1.00  0.00     0.032 C 
BRANCH  32  33
ATOM     33  CE  LYS     4      51.117  39.086  53.151  1.00  0.00     0.206 C 
BRANCH  33  34
ATOM     34  NZ  LYS     4      50.197  40.225  52.987  1.00  0.00    -0.064 N 
ATOM     35  HZ3 LYS     4      49.403  40.107  53.583  1.00 99.99     0.275 HD
ATOM     36  HZ1 LYS     4      50.668  41.072  53.237  1.00 99.99     0.275 HD
ATOM     37  HZ2 LYS     4      49.892  40.286  52.036  1.00 99.99     0.275 HD
ENDBRANCH  33  34
ENDBRANCH  32  33
ENDBRANCH  31  32
ENDBRANCH  30  31
ENDBRANCH  29  30
BRANCH  29  38
ATOM     38  C   LYS     4      54.409  40.826  49.194  1.00  0.00     0.251 C 
ATOM     39  N   SER     5      55.156  40.120  50.044  1.00  0.00    -0.336 N 
ATOM     40  H   SER     5      54.797  39.300  50.483  1.00 99.99     0.164 HD
ATOM     41  O   LYS     4      54.775  41.878  48.674  1.00  0.00    -0.271 OA
BRANCH  39  42
ATOM     42  CA  SER     5      56.498  40.517  50.520  1.00  0.00     0.189 C 
BRANCH  42  43
ATOM     43  CB  SER     5      56.464  40.815  52.027  1.00  0.00     0.169 C 
BRANCH  43  44
ATOM     44  OG  SER     5      57.571  40.222  52.713  1.00  0.00    -0.380 OA
ATOM     45  HG  SER     5      57.982  39.526  52.125  1.00 99.99     0.211 HD
ENDBRANCH  43  44
ENDBRANCH  42  43
BRANCH  42  46
ATOM     46  C   SER     5      57.594  39.470  50.272  1.00  0.00     0.254 C 
ATOM     47  N   GLY     6      58.737  39.928  49.733  1.00  0.00    -0.336 N 
ATOM     48  H   GLY     6      59.014  40.902  49.763  1.00 99.99     0.164 HD
ATOM     49  O   SER     5      57.397  38.285  50.536  1.00  0.00    -0.270 OA
BRANCH  47  50
ATOM     50  CA  GLY     6      59.743  39.019  49.156  1.00  0.00     0.189 C 
BRANCH  50  51
ATOM     51  C   GLY     6      60.379  39.477  47.847  1.00  0.00     0.253 C 
ATOM     52  O   GLY     6      60.505  40.676  47.584  1.00  0.00    -0.270 OA
ATOM     53  N   GLY     7      60.781  38.465  47.060  1.00  0.00    -0.336 N 
ATOM     54  H   GLY     7      60.881  37.527  47.417  1.00 99.99     0.164 HD
BRANCH  53  55
ATOM     55  CA  GLY     7      61.153  38.589  45.639  1.00  0.00     0.189 C 
BRANCH  55  56
ATOM     56  C   GLY     7      60.025  38.775  44.616  1.00  0.00     0.253 C 
ATOM     57  N   TRP     8      58.804  38.513  45.073  1.00  0.00    -0.337 N 
ATOM     58  H   TRP     8      58.645  38.504  46.067  1.00 99.99     0.164 HD
ATOM     59  O   GLY     7      60.256  39.237  43.495  1.00  0.00    -0.270 OA
BRANCH  57  60
ATOM     60  CA  TRP     8      57.598  38.252  44.268  1.00  0.00     0.164 C 
BRANCH  60  61
ATOM     61  CB  TRP     8      56.815  39.557  44.081  1.00  0.00     0.059 C 
BRANCH  61  62
ATOM     62  CG  TRP     8      57.207  40.588  45.145  1.00  0.00    -0.016 A 
ATOM     63  CD2 TRP     8      57.899  41.769  44.921  1.00  0.00    -0.001 A 
ATOM     64  CE2 TRP     8      58.040  42.381  46.155  1.00  0.00     0.042 A 
ATOM     65  CE3 TRP     8      58.388  42.375  43.771  1.00  0.00     0.014 A 
ATOM     66  CZ2 TRP     8      58.690  43.607  46.247  1.00  0.00     0.030 A 
ATOM     67  NE1 TRP     8      57.456  41.594  47.056  1.00  0.00    -0.365 N 
ATOM     68  CH2 TRP     8      59.193  44.215  45.095  1.00  0.00     0.002 A 
ATOM     69  CZ3 TRP     8      59.029  43.600  43.858  1.00  0.00     0.001 A 
ATOM     70  HE1 TRP     8      57.396  41.783  48.038  1.00 99.99     0.165 HD
ATOM     71  CD1 TRP     8      56.957  40.519  46.448  1.00  0.00     0.097 A 
ENDBRANCH  61  62
ENDBRANCH  60  61
BRANCH  60  72
ATOM     72  C   TRP     8      57.736  37.489  42.943  1.00  0.00     0.251 C 
ATOM     73  N   LEU     9      57.274  38.059  41.823  1.00  0.00    -0.338 N 
ATOM     74  H   LEU     9      56.780  38.931  41.835  1.00 99.99     0.164 HD
ATOM     75  O   TRP     8      58.406  36.454  42.929  1.00  0.00    -0.271 OA
BRANCH  73  76
ATOM     76  CA  LEU     9      57.413  37.423  40.498  1.00  0.00     0.159 C 
BRANCH  76  77
ATOM     77  C   LEU     9      57.712  38.406  39.355  1.00  0.00     0.251 C 
ATOM     78  N   ARG    10      58.172  37.871  38.220  1.00  0.00    -0.338 N 
ATOM     79  H   ARG    10      58.308  36.882  38.120  1.00 99.99     0.164 HD
ATOM     80  O   LEU     9      57.273  39.555  39.419  1.00  0.00    -0.271 OA
BRANCH  78  81
ATOM     81  CA  ARG    10      58.436  38.657  37.000  1.00  0.00     0.159 C 
BRANCH  81  82
ATOM     82  CB  ARG    10      57.211  39.479  36.579  1.00  0.00     0.034 C 
BRANCH  82  83
ATOM     83  CG  ARG    10      56.135  38.595  35.943  1.00  0.00     0.027 C 
BRANCH  83  84
ATOM     84  CD  ARG    10      55.026  39.409  35.267  1.00  0.00     0.116 C 
BRANCH  84  85
ATOM     85  NE  ARG    10      53.776  38.636  35.143  1.00  0.00    -0.212 N 
ATOM     86  CZ  ARG    10      53.412  37.884  34.099  1.00  0.00     0.666 C 
ATOM     87  NH2 ARG    10      52.198  37.357  34.043  1.00  0.00    -0.235 N 
ATOM     88  NH1 ARG    10      54.212  37.704  33.055  1.00  0.00    -0.235 N 
ATOM     89 2HH2 ARG    10      51.532  37.539  34.766  1.00 99.99     0.174 HD
ATOM     90 1HH2 ARG    10      51.938  36.817  33.245  1.00 99.99     0.174 HD
ATOM     91 1HH1 ARG    10      53.930  37.146  32.280  1.00 99.99     0.174 HD
ATOM     92 2HH1 ARG    10      55.112  38.141  33.061  1.00 99.99     0.174 HD
ATOM     93  HE  ARG    10      53.158  38.710  35.922  1.00 99.99     0.178 HD
ENDBRANCH  84  85
ENDBRANCH  83  84
ENDBRANCH  82  83
ENDBRANCH  81  82
BRANCH  81  94
ATOM     94  C   ARG    10      59.660  39.577  37.117  1.00  0.00     0.251 C 
ATOM     95  N   LEU    11      59.891  40.118  38.316  1.00  0.00    -0.338 N 
ATOM     96  H   LEU    11      59.242  40.008  39.070  1.00 99.99     0.164 HD
ATOM     97  O   ARG    10      60.414  39.719  36.156  1.00  0.00    -0.271 OA
BRANCH  95  98
ATOM     98  CA  LEU    11      61.084  40.925  38.636  1.00  0.00     0.159 C 
BRANCH  98  99
ATOM     99  CB  LEU    11      60.697  42.129  39.509  1.00  0.00     0.032 C 
BRANCH  99 100
ATOM    100  CG  LEU    11      59.860  43.186  38.778  1.00  0.00     0.002 C 
ATOM    101  CD1 LEU    11      59.502  44.308  39.753  1.00  0.00     0.000 C 
ATOM    102  CD2 LEU    11      60.618  43.770  37.580  1.00  0.00     0.000 C 
ENDBRANCH  99 100
ENDBRANCH  98  99
BRANCH  98 103
ATOM    103  C   LEU    11      62.186  40.118  39.341  1.00  0.00     0.251 C 
ATOM    104  O   LEU    11      63.313  40.590  39.480  1.00  0.00    -0.271 OA
ATOM    105  N   PHE    12      61.834  38.916  39.801  1.00  0.00    -0.337 N 
ATOM    106  H   PHE    12      60.874  38.616  39.791  1.00 99.99     0.164 HD
BRANCH 105 107
ATOM    107  CA  PHE    12      62.771  37.986  40.458  1.00  0.00     0.164 C 
BRANCH 107 108
ATOM    108  CB  PHE    12      62.015  36.890  41.212  1.00  0.00     0.056 C 
BRANCH 108 109
ATOM    109  CG  PHE    12      62.516  36.551  42.631  1.00  0.00    -0.044 A 
ATOM    110  CD1 PHE    12      63.688  37.061  43.171  1.00  0.00     0.008 A 
ATOM    111  CE1 PHE    12      64.131  36.624  44.410  1.00  0.00     0.001 A 
ATOM    112  CZ  PHE    12      63.412  35.655  45.115  1.00  0.00     0.000 A 
ATOM    113  CE2 PHE    12      62.229  35.150  44.564  1.00  0.00     0.001 A 
ATOM    114  CD2 PHE    12      61.791  35.607  43.329  1.00  0.00     0.008 A 
ENDBRANCH 108 109
ENDBRANCH 107 108
BRANCH 107 115
ATOM    115  C   PHE    12      63.776  37.306  39.509  1.00  0.00     0.251 C 
ATOM    116  O   PHE    12      63.382  36.421  38.750  1.00  0.00    -0.271 OA
ATOM    117  N   GLY    13      64.962  37.918  39.362  1.00  0.00    -0.336 N 
ATOM    118  H   GLY    13      65.221  38.767  39.851  1.00 99.99     0.164 HD
BRANCH 117 119
ATOM    119  CA  GLY    13      66.006  37.422  38.443  1.00  0.00     0.189 C 
BRANCH 119 120
ATOM    120  C   GLY    13      67.437  37.720  38.927  1.00  0.00     0.253 C 
ATOM    121  N   LEU    14      67.599  38.876  39.569  1.00  0.00    -0.337 N 
ATOM    122  H   LEU    14      66.825  39.501  39.670  1.00 99.99     0.164 HD
ATOM    123  O   GLY    13      68.378  36.996  38.601  1.00  0.00    -0.270 OA
BRANCH 121 124
ATOM    124  CA  LEU    14      68.858  39.334  40.179  1.00  0.00     0.159 C 
BRANCH 124 125
ATOM    125  CB  LEU    14      69.075  40.824  39.873  1.00  0.00     0.032 C 
BRANCH 125 126
ATOM    126  CG  LEU    14      68.636  41.247  38.465  1.00  0.00     0.002 C 
ATOM    127  CD2 LEU    14      69.586  40.712  37.387  1.00  0.00     0.000 C 
ATOM    128  CD1 LEU    14      68.578  42.773  38.390  1.00  0.00     0.000 C 
ENDBRANCH 125 126
ENDBRANCH 124 125
BRANCH 124 129
ATOM    129  C   LEU    14      68.879  39.120  41.698  1.00  0.00     0.251 C 
ATOM    130  N   LYS    15      68.487  40.178  42.404  1.00  0.00    -0.338 N 
ATOM    131  H   LYS    15      68.176  41.015  41.956  1.00 99.99     0.164 HD
ATOM    132  O   LEU    14      69.218  38.047  42.197  1.00  0.00    -0.271 OA
BRANCH 130 133
ATOM    133  CA  LYS    15      68.463  40.221  43.874  1.00  0.00     0.159 C 
BRANCH 133 134
ATOM    134  CB  LYS    15      68.976  41.580  44.380  1.00  0.00     0.032 C 
BRANCH 134 135
ATOM    135  CG  LYS    15      70.123  41.414  45.382  1.00  0.00     0.004 C 
BRANCH 135 136
ATOM    136  CD  LYS    15      69.929  42.256  46.643  1.00  0.00     0.032 C 
BRANCH 136 137
ATOM    137  CE  LYS    15      68.614  43.030  46.540  1.00  0.00     0.206 C 
BRANCH 137 138
ATOM    138  NZ  LYS    15      67.793  42.873  47.750  1.00  0.00    -0.064 N 
ATOM    139  HZ3 LYS    15      68.275  42.291  48.404  1.00 99.99     0.275 HD
ATOM    140  HZ2 LYS    15      66.916  42.459  47.509  1.00 99.99     0.275 HD
ATOM    141  HZ1 LYS    15      67.637  43.773  48.157  1.00 99.99     0.275 HD
ENDBRANCH 137 138
ENDBRANCH 136 137
ENDBRANCH 135 136
ENDBRANCH 134 135
ENDBRANCH 133 134
BRANCH 133 142
ATOM    142  C   LYS    15      67.054  39.955  44.409  1.00  0.00     0.251 C 
ATOM    143  N   ASP    16      66.993  39.866  45.733  1.00  0.00    -0.337 N 
ATOM    144  H   ASP    16      67.853  39.885  46.244  1.00 99.99     0.164 HD
ATOM    145  O   LYS    15      66.067  39.945  43.671  1.00  0.00    -0.271 OA
BRANCH 143 146
ATOM    146  CA  ASP    16      65.790  39.637  46.567  1.00  0.00     0.170 C 
BRANCH 146 147
ATOM    147  CB  ASP    16      66.155  38.889  47.870  1.00  0.00     0.129 C 
BRANCH 147 148
ATOM    148  CG  ASP    16      67.502  39.295  48.482  1.00  0.00     0.188 C 
ATOM    149  OD1 ASP    16      67.467  40.180  49.364  1.00  0.00    -0.647 OA
ATOM    150  OD2 ASP    16      68.457  38.509  48.307  1.00  0.00    -0.647 OA
ENDBRANCH 147 148
ENDBRANCH 146 147
BRANCH 146 151
ATOM    151  C   ASP    16      64.943  40.880  46.906  1.00  0.00     0.251 C 
ATOM    152  O   ASP    16      64.369  40.956  47.992  1.00  0.00    -0.271 OA
ATOM    153  N   LYS    17      64.905  41.853  45.994  1.00  0.00    -0.338 N 
ATOM    154  H   LYS    17      65.530  41.858  45.216  1.00 99.99     0.164 HD
BRANCH 153 155
ATOM    155  CA  LYS    17      64.066  43.066  46.113  1.00  0.00     0.159 C 
BRANCH 155 156
ATOM    156  C   LYS    17      64.457  43.972  47.299  1.00  0.00     0.251 C 
ATOM    157  N   LYS    18      63.591  43.975  48.315  1.00  0.00    -0.338 N 
ATOM    158  H   LYS    18      62.710  43.526  48.185  1.00 99.99     0.164 HD
ATOM    159  O   LYS    17      65.432  44.726  47.256  1.00  0.00    -0.271 OA
BRANCH 157 160
ATOM    160  CA  LYS    18      63.727  44.714  49.595  1.00  0.00     0.159 C 
BRANCH 160 161
ATOM    161  CB  LYS    18      63.306  46.179  49.443  1.00  0.00     0.032 C 
BRANCH 161 162
ATOM    162  CG  LYS    18      64.476  47.157  49.409  1.00  0.00     0.004 C 
BRANCH 162 163
ATOM    163  CD  LYS    18      65.655  46.502  50.121  1.00  0.00     0.032 C 
BRANCH 163 164
ATOM    164  CE  LYS    18      66.979  47.120  49.690  1.00  0.00     0.206 C 
BRANCH 164 165
ATOM    165  NZ  LYS    18      66.726  48.101  48.624  1.00  0.00    -0.064 N 
ATOM    166  HZ2 LYS    18      67.596  48.465  48.294  1.00 99.99     0.275 HD
ATOM    167  HZ1 LYS    18      66.159  48.842  48.979  1.00 99.99     0.275 HD
ATOM    168  HZ3 LYS    18      66.251  47.645  47.871  1.00 99.99     0.275 HD
ENDBRANCH 164 165
ENDBRANCH 163 164
ENDBRANCH 162 163
ENDBRANCH 161 162
ENDBRANCH 160 161
BRANCH 160 169
ATOM    169  C   LYS    18      62.886  44.144  50.749  1.00  0.00     0.251 C 
ATOM    170  O   LYS    18      62.253  44.884  51.503  1.00  0.00    -0.271 OA
ATOM    171  N   HIS    19      62.686  42.828  50.690  1.00  0.00    -0.336 N 
ATOM    172  H   HIS    19      63.054  42.297  49.930  1.00 99.99     0.164 HD
BRANCH 171 173
ATOM    173  CA  HIS    19      61.952  42.012  51.668  1.00  0.00     0.174 C 
BRANCH 173 174
ATOM    174  CB  HIS    19      62.481  42.468  53.041  1.00  0.00     0.078 C 
BRANCH 174 175
ATOM    175  CG  HIS    19      62.958  41.351  53.978  1.00  0.00     0.057 A 
ATOM    176  CD2 HIS    19      62.190  40.686  54.836  1.00  0.00     0.113 A 
ATOM    177  NE2 HIS    19      62.813  39.567  55.182  1.00  0.00    -0.223 NA
ATOM    178  CE1 HIS    19      63.994  39.561  54.576  1.00  0.00     0.175 A 
ATOM    179  ND1 HIS    19      64.096  40.673  53.854  1.00  0.00    -0.338 N 
ATOM    180  HD1 HIS    19      64.923  40.986  53.384  1.00 99.99     0.167 HD
ENDBRANCH 174 175
ENDBRANCH 173 174
BRANCH 173 181
ATOM    181  C   HIS    19      60.443  42.300  51.516  1.00  0.00     0.207 C 
ATOM    182  OXT HIS    19      60.041  42.468  50.344  1.00 99.99    -0.646 OA
ATOM    183  O   HIS    19      59.743  42.355  52.551  1.00 99.99    -0.646 OA
ENDBRANCH 173 181
ENDBRANCH 171 173
ENDBRANCH 160 169
ENDBRANCH 157 160
ENDBRANCH 155 156
BRANCH 155 184
ATOM    184  CB  LYS    17      62.592  42.639  46.204  1.00  0.00     0.032 C 
BRANCH 184 185
ATOM    185  CG  LYS    17      62.035  42.132  44.872  1.00  0.00     0.004 C 
BRANCH 185 186
ATOM    186  CD  LYS    17      62.719  42.840  43.705  1.00  0.00     0.032 C 
BRANCH 186 187
ATOM    187  CE  LYS    17      62.697  41.957  42.457  1.00  0.00     0.206 C 
BRANCH 187 188
ATOM    188  NZ  LYS    17      63.152  40.598  42.778  1.00  0.00    -0.064 N 
ATOM    189  HZ1 LYS    17      64.037  40.434  42.346  1.00 99.99     0.275 HD
ATOM    190  HZ3 LYS    17      62.484  39.938  42.433  1.00 99.99     0.275 HD
ATOM    191  HZ2 LYS    17      63.236  40.498  43.769  1.00 99.99     0.275 HD
ENDBRANCH 187 188
ENDBRANCH 186 187
ENDBRANCH 185 186
ENDBRANCH 184 185
ENDBRANCH 155 184
ENDBRANCH 153 155
ENDBRANCH 146 151
ENDBRANCH 143 146
ENDBRANCH 133 142
ENDBRANCH 130 133
ENDBRANCH 124 129
ENDBRANCH 121 124
ENDBRANCH 119 120
ENDBRANCH 117 119
ENDBRANCH 107 115
ENDBRANCH 105 107
ENDBRANCH  98 103
ENDBRANCH  95  98
ENDBRANCH  81  94
ENDBRANCH  78  81
ENDBRANCH  76  77
BRANCH  76 192
ATOM    192  CB  LEU     9      56.179  36.572  40.152  1.00  0.00     0.032 C 
BRANCH 192 193
ATOM    193  CG  LEU     9      55.126  37.322  39.325  1.00  0.00     0.002 C 
ATOM    194  CD2 LEU     9      54.058  37.970  40.215  1.00  0.00     0.000 C 
ATOM    195  CD1 LEU     9      54.455  36.350  38.354  1.00  0.00     0.000 C 
ENDBRANCH 192 193
ENDBRANCH  76 192
ENDBRANCH  73  76
ENDBRANCH  60  72
ENDBRANCH  57  60
ENDBRANCH  55  56
ENDBRANCH  53  55
ENDBRANCH  50  51
ENDBRANCH  47  50
ENDBRANCH  42  46
ENDBRANCH  39  42
ENDBRANCH  29  38
ENDBRANCH  26  29
ENDBRANCH  20  25
ENDBRANCH  17  20
ENDBRANCH  14  16
ENDBRANCH  11  14
ENDBRANCH   5  10
ENDBRANCH   1   5
TORSDOF 82
ENDMDL
MODEL 6
REMARK VINA RESULT:      -3.4      2.493     12.742
REMARK WARNING: 32 MAX_TORS EXCEEDED!!!
REMARK  82 active torsions:
REMARK  status: ('A' for Active; 'I' for Inactive)
REMARK    1  A    between atoms: N_1  and  CA_2 
REMARK    2  A    between atoms: CA_2  and  CB_5 
REMARK    3  A    between atoms: CA_2  and  C_3 
REMARK       I    between atoms: C_3  and  N_12 
REMARK    4  A    between atoms: CB_5  and  CG_6 
REMARK    5  A    between atoms: N_12  and  CA_13 
REMARK    6  A    between atoms: CA_13  and  C_14 
REMARK       I    between atoms: C_14  and  N_18 
REMARK    7  A    between atoms: N_18  and  CA_19 
REMARK    8  A    between atoms: CA_19  and  CB_22 
REMARK    9  A    between atoms: CA_19  and  C_20 
REMARK       I    between atoms: C_20  and  N_27 
REMARK   10  A    between atoms: CB_22  and  CG_23 
REMARK   11  A    between atoms: N_27  and  CA_28 
REMARK   12  A    between atoms: CA_28  and  CB_31 
REMARK   13  A    between atoms: CA_28  and  C_29 
REMARK       I    between atoms: C_29  and  N_40 
REMARK   14  A    between atoms: CB_31  and  CG_32 
REMARK   15  A    between atoms: CG_32  and  CD_33 
REMARK   16  A    between atoms: CD_33  and  CE_34 
REMARK   17  A    between atoms: CE_34  and  NZ_35 
REMARK   18  A    between atoms: N_40  and  CA_41 
REMARK   19  A    between atoms: CA_41  and  CB_44 
REMARK   20  A    between atoms: CA_41  and  C_42 
REMARK       I    between atoms: C_42  and  N_48 
REMARK   21  A    between atoms: CB_44  and  OG_45 
REMARK   22  A    between atoms: N_48  and  CA_49 
REMARK   23  A    between atoms: CA_49  and  C_50 
REMARK       I    between atoms: C_50  and  N_53 
REMARK   24  A    between atoms: N_53  and  CA_54 
REMARK   25  A    between atoms: CA_54  and  C_55 
REMARK       I    between atoms: C_55  and  N_58 
REMARK   26  A    between atoms: N_58  and  CA_59 
REMARK   27  A    between atoms: CA_59  and  CB_62 
REMARK   28  A    between atoms: CA_59  and  C_60 
REMARK       I    between atoms: C_60  and  N_74 
REMARK   29  A    between atoms: CB_62  and  CG_63 
REMARK   30  A    between atoms: N_74  and  CA_75 
REMARK   31  A    between atoms: CA_75  and  C_76 
REMARK   32  A    between atoms: CA_75  and  CB_78 
REMARK       I    between atoms: C_76  and  N_83 
REMARK   33  A    between atoms: CB_78  and  CG_79 
REMARK   34  A    between atoms: N_83  and  CA_84 
REMARK   35  A    between atoms: CA_84  and  CB_87 
REMARK   36  A    between atoms: CA_84  and  C_85 
REMARK       I    between atoms: C_85  and  N_100 
REMARK   37  A    between atoms: CB_87  and  CG_88 
REMARK   38  A    between atoms: CG_88  and  CD_89 
REMARK   39  A    between atoms: CD_89  and  NE_90 
REMARK       I    between atoms: NE_90  and  CZ_91 
REMARK       I    between atoms: CZ_91  and  NH1_92 
REMARK   40  A    between atoms: N_100  and  CA_101 
REMARK   41  A    between atoms: CA_101  and  CB_104 
REMARK   42  A    between atoms: CA_101  and  C_102 
REMARK       I    between atoms: C_102  and  N_109 
REMARK   43  A    between atoms: CB_104  and  CG_105 
REMARK   44  A    between atoms: N_109  and  CA_110 
REMARK   45  A    between atoms: CA_110  and  CB_113 
REMARK   46  A    between atoms: CA_110  and  C_111 
REMARK       I    between atoms: C_111  and  N_121 
REMARK   47  A    between atoms: CB_113  and  CG_114 
REMARK   48  A    between atoms: N_121  and  CA_122 
REMARK   49  A    between atoms: CA_122  and  C_123 
REMARK       I    between atoms: C_123  and  N_126 
REMARK   50  A    between atoms: N_126  and  CA_127 
REMARK   51  A    between atoms: CA_127  and  CB_130 
REMARK   52  A    between atoms: CA_127  and  C_128 
REMARK       I    between atoms: C_128  and  N_135 
REMARK   53  A    between atoms: CB_130  and  CG_131 
REMARK   54  A    between atoms: N_135  and  CA_136 
REMARK   55  A    between atoms: CA_136  and  CB_139 
REMARK   56  A    between atoms: CA_136  and  C_137 
REMARK       I    between atoms: C_137  and  N_148 
REMARK   57  A    between atoms: CB_139  and  CG_140 
REMARK   58  A    between atoms: CG_140  and  CD_141 
REMARK   59  A    between atoms: CD_141  and  CE_142 
REMARK   60  A    between atoms: CE_142  and  NZ_143 
REMARK   61  A    between atoms: N_148  and  CA_149 
REMARK   62  A    between atoms: CA_149  and  CB_152 
REMARK   63  A    between atoms: CA_149  and  C_150 
REMARK       I    between atoms: C_150  and  N_157 
REMARK   64  A    between atoms: CB_152  and  CG_153 
REMARK   65  A    between atoms: N_157  and  CA_158 
REMARK   66  A    between atoms: CA_158  and  C_159 
REMARK   67  A    between atoms: CA_158  and  CB_161 
REMARK       I    between atoms: C_159  and  N_170 
REMARK   68  A    between atoms: CB_161  and  CG_162 
REMARK   69  A    between atoms: CG_162  and  CD_163 
REMARK   70  A    between atoms: CD_163  and  CE_164 
REMARK   71  A    between atoms: CE_164  and  NZ_165 
REMARK   72  A    between atoms: N_170  and  CA_171 
REMARK   73  A    between atoms: CA_171  and  CB_174 
REMARK   74  A    between atoms: CA_171  and  C_172 
REMARK       I    between atoms: C_172  and  N_183 
REMARK   75  A    between atoms: CB_174  and  CG_175 
REMARK   76  A    between atoms: CG_175  and  CD_176 
REMARK   77  A    between atoms: CD_176  and  CE_177 
REMARK   78  A    between atoms: CE_177  and  NZ_178 
REMARK   79  A    between atoms: N_183  and  CA_184 
REMARK   80  A    between atoms: CA_184  and  CB_187 
REMARK   81  A    between atoms: CA_184  and  C_185 
REMARK   82  A    between atoms: CB_187  and  CG_188 
ROOT
ATOM      1  N   LEU     1      58.075  40.221  56.147  1.00  0.00    -0.058 N 
ATOM      2  H1  LEU     1      57.458  40.679  55.514  1.00 99.99     0.276 HD
ATOM      3  H2  LEU     1      58.988  40.576  56.049  1.00 99.99     0.276 HD
ATOM      4  H3  LEU     1      58.143  39.263  55.892  1.00 99.99     0.276 HD
ENDROOT
BRANCH   1   5
ATOM      5  CA  LEU     1      57.557  40.365  57.536  1.00  0.00     0.255 C 
BRANCH   5   6
ATOM      6  CB  LEU     1      56.286  39.520  57.747  1.00  0.00     0.040 C 
BRANCH   6   7
ATOM      7  CG  LEU     1      55.049  40.324  58.195  1.00  0.00     0.002 C 
ATOM      8  CD2 LEU     1      55.421  41.797  58.378  1.00  0.00     0.000 C 
ATOM      9  CD1 LEU     1      54.452  39.790  59.504  1.00  0.00     0.000 C 
ENDBRANCH   6   7
ENDBRANCH   5   6
BRANCH   5  10
ATOM     10  C   LEU     1      58.688  40.102  58.550  1.00  0.00     0.259 C 
ATOM     11  N   ALA     2      59.928  39.892  58.075  1.00  0.00    -0.338 N 
ATOM     12  H   ALA     2      60.067  39.737  57.097  1.00 99.99     0.164 HD
ATOM     13  O   LEU     1      58.449  40.316  59.738  1.00  0.00    -0.271 OA
BRANCH  11  14
ATOM     14  CA  ALA     2      61.185  39.782  58.860  1.00  0.00     0.159 C 
ATOM     15  CB  ALA     2      61.377  38.321  59.292  1.00  0.00     0.034 C 
BRANCH  14  16
ATOM     16  C   ALA     2      62.472  40.375  58.252  1.00  0.00     0.251 C 
ATOM     17  N   LEU     3      63.215  39.579  57.470  1.00  0.00    -0.338 N 
ATOM     18  H   LEU     3      63.037  38.596  57.445  1.00 99.99     0.164 HD
ATOM     19  O   ALA     2      62.752  41.550  58.488  1.00  0.00    -0.271 OA
BRANCH  17  20
ATOM     20  CA  LEU     3      64.393  39.984  56.672  1.00  0.00     0.159 C 
BRANCH  20  21
ATOM     21  CB  LEU     3      65.628  39.203  57.159  1.00  0.00     0.032 C 
BRANCH  21  22
ATOM     22  CG  LEU     3      66.785  40.085  57.642  1.00  0.00     0.002 C 
ATOM     23  CD2 LEU     3      67.940  39.236  58.176  1.00  0.00     0.000 C 
ATOM     24  CD1 LEU     3      66.293  41.016  58.753  1.00  0.00     0.000 C 
ENDBRANCH  21  22
ENDBRANCH  20  21
BRANCH  20  25
ATOM     25  C   LEU     3      64.249  39.813  55.149  1.00  0.00     0.251 C 
ATOM     26  N   LYS     4      63.395  38.867  54.738  1.00  0.00    -0.338 N 
ATOM     27  H   LYS     4      62.834  38.363  55.397  1.00 99.99     0.164 HD
ATOM     28  O   LEU     3      64.807  40.612  54.397  1.00  0.00    -0.271 OA
BRANCH  26  29
ATOM     29  CA  LYS     4      63.113  38.540  53.326  1.00  0.00     0.159 C 
BRANCH  29  30
ATOM     30  CB  LYS     4      64.242  37.679  52.735  1.00  0.00     0.032 C 
BRANCH  30  31
ATOM     31  CG  LYS     4      65.012  38.337  51.585  1.00  0.00     0.004 C 
BRANCH  31  32
ATOM     32  CD  LYS     4      65.496  37.277  50.588  1.00  0.00     0.032 C 
BRANCH  32  33
ATOM     33  CE  LYS     4      64.732  37.351  49.263  1.00  0.00     0.206 C 
BRANCH  33  34
ATOM     34  NZ  LYS     4      63.788  38.481  49.232  1.00  0.00    -0.064 N 
ATOM     35  HZ3 LYS     4      64.267  39.328  49.463  1.00 99.99     0.275 HD
ATOM     36  HZ1 LYS     4      63.402  38.567  48.312  1.00 99.99     0.275 HD
ATOM     37  HZ2 LYS     4      63.047  38.328  49.887  1.00 99.99     0.275 HD
ENDBRANCH  33  34
ENDBRANCH  32  33
ENDBRANCH  31  32
ENDBRANCH  30  31
ENDBRANCH  29  30
BRANCH  29  38
ATOM     38  C   LYS     4      61.781  37.797  53.113  1.00  0.00     0.251 C 
ATOM     39  N   SER     5      61.075  38.173  52.045  1.00  0.00    -0.336 N 
ATOM     40  H   SER     5      61.396  38.907  51.452  1.00 99.99     0.164 HD
ATOM     41  O   LYS     4      61.405  36.944  53.915  1.00  0.00    -0.271 OA
BRANCH  39  42
ATOM     42  CA  SER     5      59.732  37.663  51.699  1.00  0.00     0.189 C 
BRANCH  42  43
ATOM     43  CB  SER     5      59.846  36.339  50.929  1.00  0.00     0.169 C 
BRANCH  43  44
ATOM     44  OG  SER     5      60.716  35.412  51.586  1.00  0.00    -0.380 OA
ATOM     45  HG  SER     5      60.535  35.438  52.569  1.00 99.99     0.211 HD
ENDBRANCH  43  44
ENDBRANCH  42  43
BRANCH  42  46
ATOM     46  C   SER     5      58.813  37.428  52.906  1.00  0.00     0.254 C 
ATOM     47  N   GLY     6      58.521  36.146  53.186  1.00  0.00    -0.336 N 
ATOM     48  H   GLY     6      59.079  35.365  52.859  1.00 99.99     0.164 HD
ATOM     49  O   SER     5      58.363  38.379  53.544  1.00  0.00    -0.270 OA
BRANCH  47  50
ATOM     50  CA  GLY     6      57.425  35.780  54.100  1.00  0.00     0.189 C 
BRANCH  50  51
ATOM     51  C   GLY     6      56.030  35.735  53.480  1.00  0.00     0.253 C 
ATOM     52  O   GLY     6      55.495  34.662  53.192  1.00  0.00    -0.270 OA
ATOM     53  N   GLY     7      55.478  36.948  53.311  1.00  0.00    -0.336 N 
ATOM     54  H   GLY     7      55.842  37.764  53.779  1.00 99.99     0.164 HD
BRANCH  53  55
ATOM     55  CA  GLY     7      54.290  37.233  52.485  1.00  0.00     0.189 C 
BRANCH  55  56
ATOM     56  C   GLY     7      54.412  38.311  51.401  1.00  0.00     0.253 C 
ATOM     57  N   TRP     8      53.271  38.913  51.078  1.00  0.00    -0.337 N 
ATOM     58  H   TRP     8      52.493  38.864  51.716  1.00 99.99     0.164 HD
ATOM     59  O   GLY     7      55.514  38.645  50.960  1.00  0.00    -0.270 OA
BRANCH  57  60
ATOM     60  CA  TRP     8      53.002  39.701  49.863  1.00  0.00     0.164 C 
BRANCH  60  61
ATOM     61  CB  TRP     8      51.490  39.764  49.616  1.00  0.00     0.059 C 
BRANCH  61  62
ATOM     62  CG  TRP     8      51.016  38.550  48.809  1.00  0.00    -0.016 A 
ATOM     63  CD2 TRP     8      49.742  38.002  48.832  1.00  0.00    -0.001 A 
ATOM     64  CE2 TRP     8      49.764  36.923  47.965  1.00  0.00     0.042 A 
ATOM     65  CE3 TRP     8      48.574  38.352  49.497  1.00  0.00     0.014 A 
ATOM     66  CZ2 TRP     8      48.609  36.173  47.767  1.00  0.00     0.030 A 
ATOM     67  NE1 TRP     8      50.992  36.847  47.458  1.00  0.00    -0.365 N 
ATOM     68  CH2 TRP     8      47.435  36.515  48.440  1.00  0.00     0.002 A 
ATOM     69  CZ3 TRP     8      47.420  37.612  49.296  1.00  0.00     0.001 A 
ATOM     70  HE1 TRP     8      51.305  36.164  46.794  1.00 99.99     0.165 HD
ATOM     71  CD1 TRP     8      51.742  37.824  47.966  1.00  0.00     0.097 A 
ENDBRANCH  61  62
ENDBRANCH  60  61
BRANCH  60  72
ATOM     72  C   TRP     8      53.650  41.085  49.712  1.00  0.00     0.251 C 
ATOM     73  N   LEU     9      54.465  41.521  50.680  1.00  0.00    -0.338 N 
ATOM     74  H   LEU     9      54.607  41.006  51.528  1.00 99.99     0.164 HD
ATOM     75  O   TRP     8      53.525  41.677  48.638  1.00  0.00    -0.271 OA
BRANCH  73  76
ATOM     76  CA  LEU     9      55.173  42.815  50.594  1.00  0.00     0.159 C 
BRANCH  76  77
ATOM     77  C   LEU     9      56.239  42.877  49.489  1.00  0.00     0.251 C 
ATOM     78  N   ARG    10      56.815  41.718  49.157  1.00  0.00    -0.338 N 
ATOM     79  H   ARG    10      56.560  40.855  49.602  1.00 99.99     0.164 HD
ATOM     80  O   LEU     9      56.319  43.886  48.786  1.00  0.00    -0.271 OA
BRANCH  78  81
ATOM     81  CA  ARG    10      57.799  41.583  48.066  1.00  0.00     0.159 C 
BRANCH  81  82
ATOM     82  CB  ARG    10      57.272  42.172  46.751  1.00  0.00     0.034 C 
BRANCH  82  83
ATOM     83  CG  ARG    10      56.649  41.091  45.863  1.00  0.00     0.027 C 
BRANCH  83  84
ATOM     84  CD  ARG    10      56.127  39.896  46.666  1.00  0.00     0.116 C 
BRANCH  84  85
ATOM     85  NE  ARG    10      55.082  39.156  45.932  1.00  0.00    -0.212 N 
ATOM     86  CZ  ARG    10      54.794  37.858  46.063  1.00  0.00     0.666 C 
ATOM     87  NH2 ARG    10      53.934  37.276  45.240  1.00  0.00    -0.235 N 
ATOM     88  NH1 ARG    10      55.408  37.092  46.956  1.00  0.00    -0.235 N 
ATOM     89 2HH2 ARG    10      53.513  37.794  44.496  1.00 99.99     0.174 HD
ATOM     90 1HH2 ARG    10      53.748  36.300  45.340  1.00 99.99     0.174 HD
ATOM     91 1HH1 ARG    10      55.189  36.124  47.043  1.00 99.99     0.174 HD
ATOM     92 2HH1 ARG    10      56.099  37.508  47.548  1.00 99.99     0.174 HD
ATOM     93  HE  ARG    10      54.568  39.700  45.273  1.00 99.99     0.178 HD
ENDBRANCH  84  85
ENDBRANCH  83  84
ENDBRANCH  82  83
ENDBRANCH  81  82
BRANCH  81  94
ATOM     94  C   ARG    10      59.167  42.197  48.395  1.00  0.00     0.251 C 
ATOM     95  N   LEU    11      59.937  41.522  49.252  1.00  0.00    -0.338 N 
ATOM     96  H   LEU    11      59.597  40.710  49.729  1.00 99.99     0.164 HD
ATOM     97  O   ARG    10      59.535  43.218  47.817  1.00  0.00    -0.271 OA
BRANCH  95  98
ATOM     98  CA  LEU    11      61.324  41.903  49.584  1.00  0.00     0.159 C 
BRANCH  98  99
ATOM     99  CB  LEU    11      61.792  41.163  50.848  1.00  0.00     0.032 C 
BRANCH  99 100
ATOM    100  CG  LEU    11      62.329  42.088  51.947  1.00  0.00     0.002 C 
ATOM    101  CD1 LEU    11      62.082  43.543  51.547  1.00  0.00     0.000 C 
ATOM    102  CD2 LEU    11      61.656  41.805  53.295  1.00  0.00     0.000 C 
ENDBRANCH  99 100
ENDBRANCH  98  99
BRANCH  98 103
ATOM    103  C   LEU    11      62.314  41.633  48.440  1.00  0.00     0.251 C 
ATOM    104  O   LEU    11      62.133  40.694  47.667  1.00  0.00    -0.271 OA
ATOM    105  N   PHE    12      63.338  42.483  48.335  1.00  0.00    -0.337 N 
ATOM    106  H   PHE    12      63.384  43.315  48.897  1.00 99.99     0.164 HD
BRANCH 105 107
ATOM    107  CA  PHE    12      64.409  42.348  47.330  1.00  0.00     0.164 C 
BRANCH 107 108
ATOM    108  CB  PHE    12      64.866  43.721  46.832  1.00  0.00     0.056 C 
BRANCH 108 109
ATOM    109  CG  PHE    12      65.084  44.811  47.903  1.00  0.00    -0.044 A 
ATOM    110  CD1 PHE    12      64.046  45.468  48.549  1.00  0.00     0.008 A 
ATOM    111  CE1 PHE    12      64.318  46.512  49.419  1.00  0.00     0.001 A 
ATOM    112  CZ  PHE    12      65.636  46.923  49.637  1.00  0.00     0.000 A 
ATOM    113  CE2 PHE    12      66.675  46.252  48.985  1.00  0.00     0.001 A 
ATOM    114  CD2 PHE    12      66.389  45.198  48.128  1.00  0.00     0.008 A 
ENDBRANCH 108 109
ENDBRANCH 107 108
BRANCH 107 115
ATOM    115  C   PHE    12      65.653  41.578  47.813  1.00  0.00     0.251 C 
ATOM    116  O   PHE    12      65.574  40.882  48.825  1.00  0.00    -0.271 OA
ATOM    117  N   GLY    13      66.669  41.483  46.940  1.00  0.00    -0.336 N 
ATOM    118  H   GLY    13      66.657  41.901  46.017  1.00 99.99     0.164 HD
BRANCH 117 119
ATOM    119  CA  GLY    13      67.902  40.726  47.232  1.00  0.00     0.189 C 
BRANCH 119 120
ATOM    120  C   GLY    13      68.828  40.573  46.012  1.00  0.00     0.253 C 
ATOM    121  N   LEU    14      68.220  40.296  44.859  1.00  0.00    -0.337 N 
ATOM    122  H   LEU    14      67.230  40.159  44.839  1.00 99.99     0.164 HD
ATOM    123  O   GLY    13      70.052  40.564  46.144  1.00  0.00    -0.270 OA
BRANCH 121 124
ATOM    124  CA  LEU    14      68.895  40.176  43.556  1.00  0.00     0.159 C 
BRANCH 124 125
ATOM    125  CB  LEU    14      69.267  38.709  43.292  1.00  0.00     0.032 C 
BRANCH 125 126
ATOM    126  CG  LEU    14      70.741  38.492  42.925  1.00  0.00     0.002 C 
ATOM    127  CD2 LEU    14      71.102  39.161  41.594  1.00  0.00     0.000 C 
ATOM    128  CD1 LEU    14      71.025  36.992  42.842  1.00  0.00     0.000 C 
ENDBRANCH 125 126
ENDBRANCH 124 125
BRANCH 124 129
ATOM    129  C   LEU    14      68.025  40.694  42.402  1.00  0.00     0.251 C 
ATOM    130  N   LYS    15      66.819  40.135  42.335  1.00  0.00    -0.338 N 
ATOM    131  H   LYS    15      66.518  39.464  43.012  1.00 99.99     0.164 HD
ATOM    132  O   LEU    14      68.424  41.564  41.630  1.00  0.00    -0.271 OA
BRANCH 130 133
ATOM    133  CA  LYS    15      65.828  40.442  41.292  1.00  0.00     0.159 C 
BRANCH 133 134
ATOM    134  CB  LYS    15      66.046  39.545  40.062  1.00  0.00     0.032 C 
BRANCH 134 135
ATOM    135  CG  LYS    15      65.247  40.040  38.852  1.00  0.00     0.004 C 
BRANCH 135 136
ATOM    136  CD  LYS    15      66.095  40.869  37.887  1.00  0.00     0.032 C 
BRANCH 136 137
ATOM    137  CE  LYS    15      65.298  42.092  37.433  1.00  0.00     0.206 C 
BRANCH 137 138
ATOM    138  NZ  LYS    15      66.113  43.002  36.615  1.00  0.00    -0.064 N 
ATOM    139  HZ3 LYS    15      65.981  42.786  35.648  1.00 99.99     0.275 HD
ATOM    140  HZ2 LYS    15      67.077  42.898  36.857  1.00 99.99     0.275 HD
ATOM    141  HZ1 LYS    15      65.825  43.944  36.789  1.00 99.99     0.275 HD
ENDBRANCH 137 138
ENDBRANCH 136 137
ENDBRANCH 135 136
ENDBRANCH 134 135
ENDBRANCH 133 134
BRANCH 133 142
ATOM    142  C   LYS    15      64.402  40.276  41.822  1.00  0.00     0.251 C 
ATOM    143  N   ASP    16      63.726  41.416  41.905  1.00  0.00    -0.337 N 
ATOM    144  H   ASP    16      64.216  42.267  41.710  1.00 99.99     0.164 HD
ATOM    145  O   LYS    15      63.911  39.166  42.035  1.00  0.00    -0.271 OA
BRANCH 143 146
ATOM    146  CA  ASP    16      62.326  41.604  42.353  1.00  0.00     0.170 C 
BRANCH 146 147
ATOM    147  CB  ASP    16      62.198  42.853  43.255  1.00  0.00     0.129 C 
BRANCH 147 148
ATOM    148  CG  ASP    16      61.364  42.638  44.526  1.00  0.00     0.188 C 
ATOM    149  OD1 ASP    16      61.755  43.231  45.554  1.00  0.00    -0.647 OA
ATOM    150  OD2 ASP    16      60.212  42.181  44.368  1.00  0.00    -0.647 OA
ENDBRANCH 147 148
ENDBRANCH 146 147
BRANCH 146 151
ATOM    151  C   ASP    16      61.251  41.653  41.250  1.00  0.00     0.251 C 
ATOM    152  O   ASP    16      61.116  40.703  40.479  1.00  0.00    -0.271 OA
ATOM    153  N   LYS    17      60.476  42.738  41.208  1.00  0.00    -0.338 N 
ATOM    154  H   LYS    17      60.470  43.399  41.957  1.00 99.99     0.164 HD
BRANCH 153 155
ATOM    155  CA  LYS    17      59.465  42.993  40.159  1.00  0.00     0.159 C 
BRANCH 155 156
ATOM    156  C   LYS    17      58.442  41.849  39.996  1.00  0.00     0.251 C 
ATOM    157  N   LYS    18      58.619  41.085  38.916  1.00  0.00    -0.338 N 
ATOM    158  H   LYS    18      59.282  41.382  38.232  1.00 99.99     0.164 HD
ATOM    159  O   LYS    17      57.468  41.728  40.743  1.00  0.00    -0.271 OA
BRANCH 157 160
ATOM    160  CA  LYS    18      57.819  39.896  38.529  1.00  0.00     0.159 C 
BRANCH 160 161
ATOM    161  CB  LYS    18      58.437  39.172  37.329  1.00  0.00     0.032 C 
BRANCH 161 162
ATOM    162  CG  LYS    18      57.704  39.421  36.014  1.00  0.00     0.004 C 
BRANCH 162 163
ATOM    163  CD  LYS    18      58.321  40.655  35.362  1.00  0.00     0.032 C 
BRANCH 163 164
ATOM    164  CE  LYS    18      57.296  41.772  35.205  1.00  0.00     0.206 C 
BRANCH 164 165
ATOM    165  NZ  LYS    18      57.812  42.764  34.250  1.00  0.00    -0.064 N 
ATOM    166  HZ2 LYS    18      58.792  42.623  34.121  1.00 99.99     0.275 HD
ATOM    167  HZ1 LYS    18      57.642  43.684  34.599  1.00 99.99     0.275 HD
ATOM    168  HZ3 LYS    18      57.342  42.645  33.375  1.00 99.99     0.275 HD
ENDBRANCH 164 165
ENDBRANCH 163 164
ENDBRANCH 162 163
ENDBRANCH 161 162
ENDBRANCH 160 161
BRANCH 160 169
ATOM    169  C   LYS    18      57.674  38.841  39.638  1.00  0.00     0.251 C 
ATOM    170  O   LYS    18      58.614  38.108  39.948  1.00  0.00    -0.271 OA
ATOM    171  N   HIS    19      56.582  38.975  40.389  1.00  0.00    -0.336 N 
ATOM    172  H   HIS    19      55.946  39.726  40.223  1.00 99.99     0.164 HD
BRANCH 171 173
ATOM    173  CA  HIS    19      56.169  38.097  41.494  1.00  0.00     0.174 C 
BRANCH 173 174
ATOM    174  CB  HIS    19      56.534  38.874  42.775  1.00  0.00     0.078 C 
BRANCH 174 175
ATOM    175  CG  HIS    19      57.885  38.519  43.409  1.00  0.00     0.057 A 
ATOM    176  CD2 HIS    19      59.022  39.182  43.218  1.00  0.00     0.113 A 
ATOM    177  NE2 HIS    19      59.867  38.858  44.189  1.00  0.00    -0.223 NA
ATOM    178  CE1 HIS    19      59.271  37.954  44.956  1.00  0.00     0.175 A 
ATOM    179  ND1 HIS    19      58.058  37.724  44.461  1.00  0.00    -0.338 N 
ATOM    180  HD1 HIS    19      57.431  37.007  44.770  1.00 99.99     0.167 HD
ENDBRANCH 174 175
ENDBRANCH 173 174
BRANCH 173 181
ATOM    181  C   HIS    19      54.648  37.856  41.390  1.00  0.00     0.207 C 
ATOM    182  OXT HIS    19      54.098  37.425  42.426  1.00 99.99    -0.646 OA
ATOM    183  O   HIS    19      54.085  38.091  40.298  1.00 99.99    -0.646 OA
ENDBRANCH 173 181
ENDBRANCH 171 173
ENDBRANCH 160 169
ENDBRANCH 157 160
ENDBRANCH 155 156
BRANCH 155 184
ATOM    184  CB  LYS    17      60.190  43.280  38.834  1.00  0.00     0.032 C 
BRANCH 184 185
ATOM    185  CG  LYS    17      59.242  43.736  37.723  1.00  0.00     0.004 C 
BRANCH 185 186
ATOM    186  CD  LYS    17      60.027  44.065  36.455  1.00  0.00     0.032 C 
BRANCH 186 187
ATOM    187  CE  LYS    17      61.025  42.951  36.141  1.00  0.00     0.206 C 
BRANCH 187 188
ATOM    188  NZ  LYS    17      62.349  43.513  35.842  1.00  0.00    -0.064 N 
ATOM    189  HZ1 LYS    17      63.020  42.774  35.794  1.00 99.99     0.275 HD
ATOM    190  HZ3 LYS    17      62.606  44.152  36.568  1.00 99.99     0.275 HD
ATOM    191  HZ2 LYS    17      62.318  43.998  34.968  1.00 99.99     0.275 HD
ENDBRANCH 187 188
ENDBRANCH 186 187
ENDBRANCH 185 186
ENDBRANCH 184 185
ENDBRANCH 155 184
ENDBRANCH 153 155
ENDBRANCH 146 151
ENDBRANCH 143 146
ENDBRANCH 133 142
ENDBRANCH 130 133
ENDBRANCH 124 129
ENDBRANCH 121 124
ENDBRANCH 119 120
ENDBRANCH 117 119
ENDBRANCH 107 115
ENDBRANCH 105 107
ENDBRANCH  98 103
ENDBRANCH  95  98
ENDBRANCH  81  94
ENDBRANCH  78  81
ENDBRANCH  76  77
BRANCH  76 192
ATOM    192  CB  LEU     9      55.791  43.207  51.946  1.00  0.00     0.032 C 
BRANCH 192 193
ATOM    193  CG  LEU     9      56.723  42.137  52.531  1.00  0.00     0.002 C 
ATOM    194  CD2 LEU     9      56.051  41.357  53.668  1.00  0.00     0.000 C 
ATOM    195  CD1 LEU     9      57.996  42.802  53.055  1.00  0.00     0.000 C 
ENDBRANCH 192 193
ENDBRANCH  76 192
ENDBRANCH  73  76
ENDBRANCH  60  72
ENDBRANCH  57  60
ENDBRANCH  55  56
ENDBRANCH  53  55
ENDBRANCH  50  51
ENDBRANCH  47  50
ENDBRANCH  42  46
ENDBRANCH  39  42
ENDBRANCH  29  38
ENDBRANCH  26  29
ENDBRANCH  20  25
ENDBRANCH  17  20
ENDBRANCH  14  16
ENDBRANCH  11  14
ENDBRANCH   5  10
ENDBRANCH   1   5
TORSDOF 82
ENDMDL
MODEL 7
REMARK VINA RESULT:      -3.4      2.667      6.373
REMARK WARNING: 32 MAX_TORS EXCEEDED!!!
REMARK  82 active torsions:
REMARK  status: ('A' for Active; 'I' for Inactive)
REMARK    1  A    between atoms: N_1  and  CA_2 
REMARK    2  A    between atoms: CA_2  and  CB_5 
REMARK    3  A    between atoms: CA_2  and  C_3 
REMARK       I    between atoms: C_3  and  N_12 
REMARK    4  A    between atoms: CB_5  and  CG_6 
REMARK    5  A    between atoms: N_12  and  CA_13 
REMARK    6  A    between atoms: CA_13  and  C_14 
REMARK       I    between atoms: C_14  and  N_18 
REMARK    7  A    between atoms: N_18  and  CA_19 
REMARK    8  A    between atoms: CA_19  and  CB_22 
REMARK    9  A    between atoms: CA_19  and  C_20 
REMARK       I    between atoms: C_20  and  N_27 
REMARK   10  A    between atoms: CB_22  and  CG_23 
REMARK   11  A    between atoms: N_27  and  CA_28 
REMARK   12  A    between atoms: CA_28  and  CB_31 
REMARK   13  A    between atoms: CA_28  and  C_29 
REMARK       I    between atoms: C_29  and  N_40 
REMARK   14  A    between atoms: CB_31  and  CG_32 
REMARK   15  A    between atoms: CG_32  and  CD_33 
REMARK   16  A    between atoms: CD_33  and  CE_34 
REMARK   17  A    between atoms: CE_34  and  NZ_35 
REMARK   18  A    between atoms: N_40  and  CA_41 
REMARK   19  A    between atoms: CA_41  and  CB_44 
REMARK   20  A    between atoms: CA_41  and  C_42 
REMARK       I    between atoms: C_42  and  N_48 
REMARK   21  A    between atoms: CB_44  and  OG_45 
REMARK   22  A    between atoms: N_48  and  CA_49 
REMARK   23  A    between atoms: CA_49  and  C_50 
REMARK       I    between atoms: C_50  and  N_53 
REMARK   24  A    between atoms: N_53  and  CA_54 
REMARK   25  A    between atoms: CA_54  and  C_55 
REMARK       I    between atoms: C_55  and  N_58 
REMARK   26  A    between atoms: N_58  and  CA_59 
REMARK   27  A    between atoms: CA_59  and  CB_62 
REMARK   28  A    between atoms: CA_59  and  C_60 
REMARK       I    between atoms: C_60  and  N_74 
REMARK   29  A    between atoms: CB_62  and  CG_63 
REMARK   30  A    between atoms: N_74  and  CA_75 
REMARK   31  A    between atoms: CA_75  and  C_76 
REMARK   32  A    between atoms: CA_75  and  CB_78 
REMARK       I    between atoms: C_76  and  N_83 
REMARK   33  A    between atoms: CB_78  and  CG_79 
REMARK   34  A    between atoms: N_83  and  CA_84 
REMARK   35  A    between atoms: CA_84  and  CB_87 
REMARK   36  A    between atoms: CA_84  and  C_85 
REMARK       I    between atoms: C_85  and  N_100 
REMARK   37  A    between atoms: CB_87  and  CG_88 
REMARK   38  A    between atoms: CG_88  and  CD_89 
REMARK   39  A    between atoms: CD_89  and  NE_90 
REMARK       I    between atoms: NE_90  and  CZ_91 
REMARK       I    between atoms: CZ_91  and  NH1_92 
REMARK   40  A    between atoms: N_100  and  CA_101 
REMARK   41  A    between atoms: CA_101  and  CB_104 
REMARK   42  A    between atoms: CA_101  and  C_102 
REMARK       I    between atoms: C_102  and  N_109 
REMARK   43  A    between atoms: CB_104  and  CG_105 
REMARK   44  A    between atoms: N_109  and  CA_110 
REMARK   45  A    between atoms: CA_110  and  CB_113 
REMARK   46  A    between atoms: CA_110  and  C_111 
REMARK       I    between atoms: C_111  and  N_121 
REMARK   47  A    between atoms: CB_113  and  CG_114 
REMARK   48  A    between atoms: N_121  and  CA_122 
REMARK   49  A    between atoms: CA_122  and  C_123 
REMARK       I    between atoms: C_123  and  N_126 
REMARK   50  A    between atoms: N_126  and  CA_127 
REMARK   51  A    between atoms: CA_127  and  CB_130 
REMARK   52  A    between atoms: CA_127  and  C_128 
REMARK       I    between atoms: C_128  and  N_135 
REMARK   53  A    between atoms: CB_130  and  CG_131 
REMARK   54  A    between atoms: N_135  and  CA_136 
REMARK   55  A    between atoms: CA_136  and  CB_139 
REMARK   56  A    between atoms: CA_136  and  C_137 
REMARK       I    between atoms: C_137  and  N_148 
REMARK   57  A    between atoms: CB_139  and  CG_140 
REMARK   58  A    between atoms: CG_140  and  CD_141 
REMARK   59  A    between atoms: CD_141  and  CE_142 
REMARK   60  A    between atoms: CE_142  and  NZ_143 
REMARK   61  A    between atoms: N_148  and  CA_149 
REMARK   62  A    between atoms: CA_149  and  CB_152 
REMARK   63  A    between atoms: CA_149  and  C_150 
REMARK       I    between atoms: C_150  and  N_157 
REMARK   64  A    between atoms: CB_152  and  CG_153 
REMARK   65  A    between atoms: N_157  and  CA_158 
REMARK   66  A    between atoms: CA_158  and  C_159 
REMARK   67  A    between atoms: CA_158  and  CB_161 
REMARK       I    between atoms: C_159  and  N_170 
REMARK   68  A    between atoms: CB_161  and  CG_162 
REMARK   69  A    between atoms: CG_162  and  CD_163 
REMARK   70  A    between atoms: CD_163  and  CE_164 
REMARK   71  A    between atoms: CE_164  and  NZ_165 
REMARK   72  A    between atoms: N_170  and  CA_171 
REMARK   73  A    between atoms: CA_171  and  CB_174 
REMARK   74  A    between atoms: CA_171  and  C_172 
REMARK       I    between atoms: C_172  and  N_183 
REMARK   75  A    between atoms: CB_174  and  CG_175 
REMARK   76  A    between atoms: CG_175  and  CD_176 
REMARK   77  A    between atoms: CD_176  and  CE_177 
REMARK   78  A    between atoms: CE_177  and  NZ_178 
REMARK   79  A    between atoms: N_183  and  CA_184 
REMARK   80  A    between atoms: CA_184  and  CB_187 
REMARK   81  A    between atoms: CA_184  and  C_185 
REMARK   82  A    between atoms: CB_187  and  CG_188 
ROOT
ATOM      1  N   LEU     1      53.694  33.867  41.545  1.00  0.00    -0.058 N 
ATOM      2  H1  LEU     1      54.086  33.081  42.013  1.00 99.99     0.276 HD
ATOM      3  H2  LEU     1      53.110  33.571  40.810  1.00 99.99     0.276 HD
ATOM      4  H3  LEU     1      54.425  34.375  41.105  1.00 99.99     0.276 HD
ENDROOT
BRANCH   1   5
ATOM      5  CA  LEU     1      52.973  34.721  42.530  1.00  0.00     0.255 C 
BRANCH   5   6
ATOM      6  CB  LEU     1      51.726  34.004  43.082  1.00  0.00     0.040 C 
BRANCH   6   7
ATOM      7  CG  LEU     1      50.391  34.716  42.780  1.00  0.00     0.002 C 
ATOM      8  CD2 LEU     1      50.357  35.164  41.317  1.00  0.00     0.000 C 
ATOM      9  CD1 LEU     1      50.166  35.935  43.684  1.00  0.00     0.000 C 
ENDBRANCH   6   7
ENDBRANCH   5   6
BRANCH   5  10
ATOM     10  C   LEU     1      53.956  35.232  43.603  1.00  0.00     0.259 C 
ATOM     11  N   ALA     2      53.955  36.546  43.888  1.00  0.00    -0.338 N 
ATOM     12  H   ALA     2      53.460  37.183  43.298  1.00 99.99     0.164 HD
ATOM     13  O   LEU     1      54.530  34.392  44.296  1.00  0.00    -0.271 OA
BRANCH  11  14
ATOM     14  CA  ALA     2      54.690  37.229  44.985  1.00  0.00     0.159 C 
ATOM     15  CB  ALA     2      54.920  38.696  44.593  1.00  0.00     0.034 C 
BRANCH  14  16
ATOM     16  C   ALA     2      54.137  37.097  46.418  1.00  0.00     0.251 C 
ATOM     17  N   LEU     3      55.016  36.878  47.406  1.00  0.00    -0.338 N 
ATOM     18  H   LEU     3      55.957  36.622  47.190  1.00 99.99     0.164 HD
ATOM     19  O   ALA     2      52.925  37.219  46.599  1.00  0.00    -0.271 OA
BRANCH  17  20
ATOM     20  CA  LEU     3      54.723  36.871  48.855  1.00  0.00     0.159 C 
BRANCH  20  21
ATOM     21  CB  LEU     3      55.898  36.219  49.608  1.00  0.00     0.032 C 
BRANCH  21  22
ATOM     22  CG  LEU     3      55.897  34.686  49.580  1.00  0.00     0.002 C 
ATOM     23  CD2 LEU     3      54.672  34.147  48.839  1.00  0.00     0.000 C 
ATOM     24  CD1 LEU     3      55.893  34.146  51.011  1.00  0.00     0.000 C 
ENDBRANCH  21  22
ENDBRANCH  20  21
BRANCH  20  25
ATOM     25  C   LEU     3      54.421  38.248  49.475  1.00  0.00     0.251 C 
ATOM     26  N   LYS     4      53.165  38.691  49.347  1.00  0.00    -0.338 N 
ATOM     27  H   LYS     4      52.457  38.113  48.937  1.00 99.99     0.164 HD
ATOM     28  O   LEU     3      55.285  38.807  50.150  1.00  0.00    -0.271 OA
BRANCH  26  29
ATOM     29  CA  LYS     4      52.668  39.983  49.863  1.00  0.00     0.159 C 
BRANCH  29  30
ATOM     30  CB  LYS     4      52.319  39.869  51.357  1.00  0.00     0.032 C 
BRANCH  30  31
ATOM     31  CG  LYS     4      50.992  39.160  51.651  1.00  0.00     0.004 C 
BRANCH  31  32
ATOM     32  CD  LYS     4      50.486  39.529  53.050  1.00  0.00     0.032 C 
BRANCH  32  33
ATOM     33  CE  LYS     4      49.043  39.067  53.274  1.00  0.00     0.206 C 
BRANCH  33  34
ATOM     34  NZ  LYS     4      48.667  37.970  52.366  1.00  0.00    -0.064 N 
ATOM     35  HZ3 LYS     4      48.626  37.110  52.874  1.00 99.99     0.275 HD
ATOM     36  HZ1 LYS     4      47.766  38.158  51.972  1.00 99.99     0.275 HD
ATOM     37  HZ2 LYS     4      49.338  37.889  51.629  1.00 99.99     0.275 HD
ENDBRANCH  33  34
ENDBRANCH  32  33
ENDBRANCH  31  32
ENDBRANCH  30  31
ENDBRANCH  29  30
BRANCH  29  38
ATOM     38  C   LYS     4      53.661  41.147  49.690  1.00  0.00     0.251 C 
ATOM     39  N   SER     5      54.385  41.453  50.768  1.00  0.00    -0.336 N 
ATOM     40  H   SER     5      54.258  40.963  51.627  1.00 99.99     0.164 HD
ATOM     41  O   LYS     4      53.729  41.758  48.625  1.00  0.00    -0.271 OA
BRANCH  39  42
ATOM     42  CA  SER     5      55.329  42.586  50.857  1.00  0.00     0.189 C 
BRANCH  42  43
ATOM     43  CB  SER     5      55.784  42.790  52.311  1.00  0.00     0.169 C 
BRANCH  43  44
ATOM     44  OG  SER     5      55.391  41.700  53.150  1.00  0.00    -0.380 OA
ATOM     45  HG  SER     5      55.024  40.966  52.579  1.00 99.99     0.211 HD
ENDBRANCH  43  44
ENDBRANCH  42  43
BRANCH  42  46
ATOM     46  C   SER     5      56.586  42.435  49.988  1.00  0.00     0.254 C 
ATOM     47  N   GLY     6      56.600  43.139  48.842  1.00  0.00    -0.336 N 
ATOM     48  H   GLY     6      56.008  43.945  48.679  1.00 99.99     0.164 HD
ATOM     49  O   SER     5      57.497  41.684  50.332  1.00  0.00    -0.270 OA
BRANCH  47  50
ATOM     50  CA  GLY     6      57.575  42.863  47.773  1.00  0.00     0.189 C 
BRANCH  50  51
ATOM     51  C   GLY     6      57.030  42.130  46.550  1.00  0.00     0.253 C 
ATOM     52  O   GLY     6      55.979  41.486  46.608  1.00  0.00    -0.270 OA
ATOM     53  N   GLY     7      57.788  42.279  45.451  1.00  0.00    -0.336 N 
ATOM     54  H   GLY     7      58.489  43.001  45.387  1.00 99.99     0.164 HD
BRANCH  53  55
ATOM     55  CA  GLY     7      57.676  41.467  44.225  1.00  0.00     0.189 C 
BRANCH  55  56
ATOM     56  C   GLY     7      58.609  40.259  44.077  1.00  0.00     0.253 C 
ATOM     57  N   TRP     8      58.515  39.617  42.916  1.00  0.00    -0.337 N 
ATOM     58  H   TRP     8      58.100  40.088  42.128  1.00 99.99     0.164 HD
ATOM     59  O   GLY     7      59.445  39.994  44.944  1.00  0.00    -0.270 OA
BRANCH  57  60
ATOM     60  CA  TRP     8      58.993  38.255  42.620  1.00  0.00     0.164 C 
BRANCH  60  61
ATOM     61  CB  TRP     8      57.972  37.232  43.132  1.00  0.00     0.059 C 
BRANCH  61  62
ATOM     62  CG  TRP     8      57.277  36.520  41.966  1.00  0.00    -0.016 A 
ATOM     63  CD2 TRP     8      56.376  37.093  41.081  1.00  0.00    -0.001 A 
ATOM     64  CE2 TRP     8      55.997  36.091  40.204  1.00  0.00     0.042 A 
ATOM     65  CE3 TRP     8      55.877  38.381  40.942  1.00  0.00     0.014 A 
ATOM     66  CZ2 TRP     8      55.098  36.373  39.181  1.00  0.00     0.030 A 
ATOM     67  NE1 TRP     8      56.649  34.986  40.559  1.00  0.00    -0.365 N 
ATOM     68  CH2 TRP     8      54.585  37.664  39.043  1.00  0.00     0.002 A 
ATOM     69  CZ3 TRP     8      54.987  38.667  39.919  1.00  0.00     0.001 A 
ATOM     70  HE1 TRP     8      56.578  34.098  40.101  1.00 99.99     0.165 HD
ATOM     71  CD1 TRP     8      57.416  35.246  41.617  1.00  0.00     0.097 A 
ENDBRANCH  61  62
ENDBRANCH  60  61
BRANCH  60  72
ATOM     72  C   TRP     8      59.453  37.918  41.194  1.00  0.00     0.251 C 
ATOM     73  N   LEU     9      59.178  38.783  40.210  1.00  0.00    -0.338 N 
ATOM     74  H   LEU     9      58.622  39.603  40.362  1.00 99.99     0.164 HD
ATOM     75  O   TRP     8      60.194  36.947  41.032  1.00  0.00    -0.271 OA
BRANCH  73  76
ATOM     76  CA  LEU     9      59.629  38.567  38.820  1.00  0.00     0.159 C 
BRANCH  76  77
ATOM     77  C   LEU     9      60.969  39.238  38.481  1.00  0.00     0.251 C 
ATOM     78  N   ARG    10      62.002  38.928  39.271  1.00  0.00    -0.338 N 
ATOM     79  H   ARG    10      61.907  38.288  40.038  1.00 99.99     0.164 HD
ATOM     80  O   LEU     9      61.109  39.784  37.386  1.00  0.00    -0.271 OA
BRANCH  78  81
ATOM     81  CA  ARG    10      63.375  39.418  39.043  1.00  0.00     0.159 C 
BRANCH  81  82
ATOM     82  CB  ARG    10      64.075  38.642  37.920  1.00  0.00     0.034 C 
BRANCH  82  83
ATOM     83  CG  ARG    10      65.497  38.240  38.319  1.00  0.00     0.027 C 
BRANCH  83  84
ATOM     84  CD  ARG    10      65.593  36.781  38.777  1.00  0.00     0.116 C 
BRANCH  84  85
ATOM     85  NE  ARG    10      66.811  36.125  38.267  1.00  0.00    -0.212 N 
ATOM     86  CZ  ARG    10      66.930  35.467  37.110  1.00  0.00     0.666 C 
ATOM     87  NH2 ARG    10      68.036  34.792  36.832  1.00  0.00    -0.235 N 
ATOM     88  NH1 ARG    10      65.929  35.396  36.241  1.00  0.00    -0.235 N 
ATOM     89 2HH2 ARG    10      68.781  34.745  37.496  1.00 99.99     0.174 HD
ATOM     90 1HH2 ARG    10      68.096  34.289  35.973  1.00 99.99     0.174 HD
ATOM     91 1HH1 ARG    10      66.025  34.899  35.383  1.00 99.99     0.174 HD
ATOM     92 2HH1 ARG    10      65.069  35.857  36.464  1.00 99.99     0.174 HD
ATOM     93  HE  ARG    10      67.603  36.183  38.871  1.00 99.99     0.178 HD
ENDBRANCH  84  85
ENDBRANCH  83  84
ENDBRANCH  82  83
ENDBRANCH  81  82
BRANCH  81  94
ATOM     94  C   ARG    10      63.447  40.924  38.752  1.00  0.00     0.251 C 
ATOM     95  N   LEU    11      63.476  41.286  37.467  1.00  0.00    -0.338 N 
ATOM     96  H   LEU    11      63.547  40.605  36.736  1.00 99.99     0.164 HD
ATOM     97  O   ARG    10      63.395  41.730  39.679  1.00  0.00    -0.271 OA
BRANCH  95  98
ATOM     98  CA  LEU    11      63.423  42.687  37.008  1.00  0.00     0.159 C 
BRANCH  98  99
ATOM     99  CB  LEU    11      63.702  42.766  35.499  1.00  0.00     0.032 C 
BRANCH  99 100
ATOM    100  CG  LEU    11      65.066  43.376  35.149  1.00  0.00     0.002 C 
ATOM    101  CD1 LEU    11      64.862  44.801  34.631  1.00  0.00     0.000 C 
ATOM    102  CD2 LEU    11      65.997  43.401  36.366  1.00  0.00     0.000 C 
ENDBRANCH  99 100
ENDBRANCH  98  99
BRANCH  98 103
ATOM    103  C   LEU    11      62.080  43.371  37.313  1.00  0.00     0.251 C 
ATOM    104  O   LEU    11      61.882  44.536  36.971  1.00  0.00    -0.271 OA
ATOM    105  N   PHE    12      61.165  42.623  37.933  1.00  0.00    -0.337 N 
ATOM    106  H   PHE    12      61.309  41.639  38.078  1.00 99.99     0.164 HD
BRANCH 105 107
ATOM    107  CA  PHE    12      59.843  43.128  38.347  1.00  0.00     0.164 C 
BRANCH 107 108
ATOM    108  CB  PHE    12      58.724  42.430  37.572  1.00  0.00     0.056 C 
BRANCH 108 109
ATOM    109  CG  PHE    12      58.370  43.012  36.187  1.00  0.00    -0.044 A 
ATOM    110  CD1 PHE    12      57.943  42.239  35.118  1.00  0.00     0.008 A 
ATOM    111  CE1 PHE    12      57.750  42.818  33.873  1.00  0.00     0.001 A 
ATOM    112  CZ  PHE    12      58.001  44.180  33.683  1.00  0.00     0.000 A 
ATOM    113  CE2 PHE    12      58.427  44.952  34.768  1.00  0.00     0.001 A 
ATOM    114  CD2 PHE    12      58.602  44.361  36.012  1.00  0.00     0.008 A 
ENDBRANCH 108 109
ENDBRANCH 107 108
BRANCH 107 115
ATOM    115  C   PHE    12      59.541  42.987  39.851  1.00  0.00     0.251 C 
ATOM    116  O   PHE    12      58.429  42.596  40.207  1.00  0.00    -0.271 OA
ATOM    117  N   GLY    13      60.600  43.023  40.676  1.00  0.00    -0.336 N 
ATOM    118  H   GLY    13      61.553  43.156  40.360  1.00 99.99     0.164 HD
BRANCH 117 119
ATOM    119  CA  GLY    13      60.479  42.840  42.136  1.00  0.00     0.189 C 
BRANCH 119 120
ATOM    120  C   GLY    13      61.439  41.777  42.700  1.00  0.00     0.253 C 
ATOM    121  N   LEU    14      62.246  42.190  43.677  1.00  0.00    -0.337 N 
ATOM    122  H   LEU    14      62.228  43.148  43.965  1.00 99.99     0.164 HD
ATOM    123  O   GLY    13      61.541  40.671  42.169  1.00  0.00    -0.270 OA
BRANCH 121 124
ATOM    124  CA  LEU    14      63.192  41.333  44.410  1.00  0.00     0.159 C 
BRANCH 124 125
ATOM    125  CB  LEU    14      64.519  42.078  44.618  1.00  0.00     0.032 C 
BRANCH 125 126
ATOM    126  CG  LEU    14      65.762  41.269  44.224  1.00  0.00     0.002 C 
ATOM    127  CD2 LEU    14      66.926  41.502  45.194  1.00  0.00     0.000 C 
ATOM    128  CD1 LEU    14      66.187  41.655  42.806  1.00  0.00     0.000 C 
ENDBRANCH 125 126
ENDBRANCH 124 125
BRANCH 124 129
ATOM    129  C   LEU    14      62.640  40.890  45.771  1.00  0.00     0.251 C 
ATOM    130  N   LYS    15      61.796  41.758  46.326  1.00  0.00    -0.338 N 
ATOM    131  H   LYS    15      61.535  42.601  45.858  1.00 99.99     0.164 HD
ATOM    132  O   LEU    14      62.952  39.813  46.278  1.00  0.00    -0.271 OA
BRANCH 130 133
ATOM    133  CA  LYS    15      61.173  41.568  47.645  1.00  0.00     0.159 C 
BRANCH 133 134
ATOM    134  CB  LYS    15      60.745  40.102  47.831  1.00  0.00     0.032 C 
BRANCH 134 135
ATOM    135  CG  LYS    15      59.814  39.934  49.036  1.00  0.00     0.004 C 
BRANCH 135 136
ATOM    136  CD  LYS    15      58.956  38.672  48.945  1.00  0.00     0.032 C 
BRANCH 136 137
ATOM    137  CE  LYS    15      57.975  38.807  47.780  1.00  0.00     0.206 C 
BRANCH 137 138
ATOM    138  NZ  LYS    15      58.235  37.812  46.729  1.00  0.00    -0.064 N 
ATOM    139  HZ3 LYS    15      58.567  36.968  47.148  1.00 99.99     0.275 HD
ATOM    140  HZ2 LYS    15      58.920  38.167  46.093  1.00 99.99     0.275 HD
ATOM    141  HZ1 LYS    15      57.385  37.628  46.236  1.00 99.99     0.275 HD
ENDBRANCH 137 138
ENDBRANCH 136 137
ENDBRANCH 135 136
ENDBRANCH 134 135
ENDBRANCH 133 134
BRANCH 133 142
ATOM    142  C   LYS    15      62.124  41.988  48.769  1.00  0.00     0.251 C 
ATOM    143  N   ASP    16      61.817  43.156  49.320  1.00  0.00    -0.337 N 
ATOM    144  H   ASP    16      61.075  43.688  48.909  1.00 99.99     0.164 HD
ATOM    145  O   LYS    15      63.012  41.241  49.182  1.00  0.00    -0.271 OA
BRANCH 143 146
ATOM    146  CA  ASP    16      62.513  43.837  50.436  1.00  0.00     0.170 C 
BRANCH 146 147
ATOM    147  CB  ASP    16      62.541  45.367  50.219  1.00  0.00     0.129 C 
BRANCH 147 148
ATOM    148  CG  ASP    16      63.628  45.853  49.250  1.00  0.00     0.188 C 
ATOM    149  OD1 ASP    16      64.144  44.985  48.514  1.00  0.00    -0.647 OA
ATOM    150  OD2 ASP    16      63.677  47.083  49.034  1.00  0.00    -0.647 OA
ENDBRANCH 147 148
ENDBRANCH 146 147
BRANCH 146 151
ATOM    151  C   ASP    16      62.001  43.527  51.857  1.00  0.00     0.251 C 
ATOM    152  O   ASP    16      61.838  44.440  52.666  1.00  0.00    -0.271 OA
ATOM    153  N   LYS    17      61.717  42.253  52.133  1.00  0.00    -0.338 N 
ATOM    154  H   LYS    17      61.667  41.565  51.411  1.00 99.99     0.164 HD
BRANCH 153 155
ATOM    155  CA  LYS    17      61.310  41.767  53.470  1.00  0.00     0.159 C 
BRANCH 155 156
ATOM    156  C   LYS    17      62.495  41.309  54.346  1.00  0.00     0.251 C 
ATOM    157  N   LYS    18      62.175  40.988  55.601  1.00  0.00    -0.338 N 
ATOM    158  H   LYS    18      61.255  41.199  55.923  1.00 99.99     0.164 HD
ATOM    159  O   LYS    17      63.662  41.353  53.949  1.00  0.00    -0.271 OA
BRANCH 157 160
ATOM    160  CA  LYS    18      63.095  40.479  56.649  1.00  0.00     0.159 C 
BRANCH 160 161
ATOM    161  CB  LYS    18      63.488  41.583  57.635  1.00  0.00     0.032 C 
BRANCH 161 162
ATOM    162  CG  LYS    18      64.833  42.235  57.328  1.00  0.00     0.004 C 
BRANCH 162 163
ATOM    163  CD  LYS    18      65.763  41.964  58.506  1.00  0.00     0.032 C 
BRANCH 163 164
ATOM    164  CE  LYS    18      66.280  40.530  58.488  1.00  0.00     0.206 C 
BRANCH 164 165
ATOM    165  NZ  LYS    18      65.628  39.773  59.567  1.00  0.00    -0.064 N 
ATOM    166  HZ2 LYS    18      66.062  38.877  59.654  1.00 99.99     0.275 HD
ATOM    167  HZ1 LYS    18      64.657  39.662  59.359  1.00 99.99     0.275 HD
ATOM    168  HZ3 LYS    18      65.731  40.276  60.425  1.00 99.99     0.275 HD
ENDBRANCH 164 165
ENDBRANCH 163 164
ENDBRANCH 162 163
ENDBRANCH 161 162
ENDBRANCH 160 161
BRANCH 160 169
ATOM    169  C   LYS    18      62.519  39.333  57.497  1.00  0.00     0.251 C 
ATOM    170  O   LYS    18      63.246  38.632  58.202  1.00  0.00    -0.271 OA
ATOM    171  N   HIS    19      61.192  39.346  57.614  1.00  0.00    -0.336 N 
ATOM    172  H   HIS    19      60.655  40.070  57.186  1.00 99.99     0.164 HD
BRANCH 171 173
ATOM    173  CA  HIS    19      60.370  38.362  58.334  1.00  0.00     0.174 C 
BRANCH 173 174
ATOM    174  CB  HIS    19      59.139  39.154  58.819  1.00  0.00     0.078 C 
BRANCH 174 175
ATOM    175  CG  HIS    19      58.086  39.472  57.750  1.00  0.00     0.057 A 
ATOM    176  CD2 HIS    19      56.983  40.189  57.946  1.00  0.00     0.113 A 
ATOM    177  NE2 HIS    19      56.523  40.587  56.767  1.00  0.00    -0.223 NA
ATOM    178  CE1 HIS    19      57.314  40.073  55.832  1.00  0.00     0.175 A 
ATOM    179  ND1 HIS    19      58.262  39.362  56.436  1.00  0.00    -0.338 N 
ATOM    180  HD1 HIS    19      58.927  38.773  55.976  1.00 99.99     0.167 HD
ENDBRANCH 174 175
ENDBRANCH 173 174
BRANCH 173 181
ATOM    181  C   HIS    19      59.972  37.239  57.352  1.00  0.00     0.207 C 
ATOM    182  OXT HIS    19      60.507  37.295  56.224  1.00 99.99    -0.646 OA
ATOM    183  O   HIS    19      59.154  36.376  57.739  1.00 99.99    -0.646 OA
ENDBRANCH 173 181
ENDBRANCH 171 173
ENDBRANCH 160 169
ENDBRANCH 157 160
ENDBRANCH 155 156
BRANCH 155 184
ATOM    184  CB  LYS    17      60.282  40.638  53.293  1.00  0.00     0.032 C 
BRANCH 184 185
ATOM    185  CG  LYS    17      60.708  39.603  52.249  1.00  0.00     0.004 C 
BRANCH 185 186
ATOM    186  CD  LYS    17      60.984  38.256  52.915  1.00  0.00     0.032 C 
BRANCH 186 187
ATOM    187  CE  LYS    17      60.601  37.109  51.980  1.00  0.00     0.206 C 
BRANCH 187 188
ATOM    188  NZ  LYS    17      59.530  36.297  52.571  1.00  0.00    -0.064 N 
ATOM    189  HZ1 LYS    17      59.798  35.335  52.562  1.00 99.99     0.275 HD
ATOM    190  HZ3 LYS    17      58.693  36.416  52.035  1.00 99.99     0.275 HD
ATOM    191  HZ2 LYS    17      59.366  36.592  53.512  1.00 99.99     0.275 HD
ENDBRANCH 187 188
ENDBRANCH 186 187
ENDBRANCH 185 186
ENDBRANCH 184 185
ENDBRANCH 155 184
ENDBRANCH 153 155
ENDBRANCH 146 151
ENDBRANCH 143 146
ENDBRANCH 133 142
ENDBRANCH 130 133
ENDBRANCH 124 129
ENDBRANCH 121 124
ENDBRANCH 119 120
ENDBRANCH 117 119
ENDBRANCH 107 115
ENDBRANCH 105 107
ENDBRANCH  98 103
ENDBRANCH  95  98
ENDBRANCH  81  94
ENDBRANCH  78  81
ENDBRANCH  76  77
BRANCH  76 192
ATOM    192  CB  LEU     9      58.553  38.997  37.809  1.00  0.00     0.032 C 
BRANCH 192 193
ATOM    193  CG  LEU     9      58.339  37.989  36.672  1.00  0.00     0.002 C 
ATOM    194  CD2 LEU     9      57.060  38.287  35.880  1.00  0.00     0.000 C 
ATOM    195  CD1 LEU     9      58.259  36.577  37.252  1.00  0.00     0.000 C 
ENDBRANCH 192 193
ENDBRANCH  76 192
ENDBRANCH  73  76
ENDBRANCH  60  72
ENDBRANCH  57  60
ENDBRANCH  55  56
ENDBRANCH  53  55
ENDBRANCH  50  51
ENDBRANCH  47  50
ENDBRANCH  42  46
ENDBRANCH  39  42
ENDBRANCH  29  38
ENDBRANCH  26  29
ENDBRANCH  20  25
ENDBRANCH  17  20
ENDBRANCH  14  16
ENDBRANCH  11  14
ENDBRANCH   5  10
ENDBRANCH   1   5
TORSDOF 82
ENDMDL
MODEL 8
REMARK VINA RESULT:      -3.2      3.959     12.003
REMARK WARNING: 32 MAX_TORS EXCEEDED!!!
REMARK  82 active torsions:
REMARK  status: ('A' for Active; 'I' for Inactive)
REMARK    1  A    between atoms: N_1  and  CA_2 
REMARK    2  A    between atoms: CA_2  and  CB_5 
REMARK    3  A    between atoms: CA_2  and  C_3 
REMARK       I    between atoms: C_3  and  N_12 
REMARK    4  A    between atoms: CB_5  and  CG_6 
REMARK    5  A    between atoms: N_12  and  CA_13 
REMARK    6  A    between atoms: CA_13  and  C_14 
REMARK       I    between atoms: C_14  and  N_18 
REMARK    7  A    between atoms: N_18  and  CA_19 
REMARK    8  A    between atoms: CA_19  and  CB_22 
REMARK    9  A    between atoms: CA_19  and  C_20 
REMARK       I    between atoms: C_20  and  N_27 
REMARK   10  A    between atoms: CB_22  and  CG_23 
REMARK   11  A    between atoms: N_27  and  CA_28 
REMARK   12  A    between atoms: CA_28  and  CB_31 
REMARK   13  A    between atoms: CA_28  and  C_29 
REMARK       I    between atoms: C_29  and  N_40 
REMARK   14  A    between atoms: CB_31  and  CG_32 
REMARK   15  A    between atoms: CG_32  and  CD_33 
REMARK   16  A    between atoms: CD_33  and  CE_34 
REMARK   17  A    between atoms: CE_34  and  NZ_35 
REMARK   18  A    between atoms: N_40  and  CA_41 
REMARK   19  A    between atoms: CA_41  and  CB_44 
REMARK   20  A    between atoms: CA_41  and  C_42 
REMARK       I    between atoms: C_42  and  N_48 
REMARK   21  A    between atoms: CB_44  and  OG_45 
REMARK   22  A    between atoms: N_48  and  CA_49 
REMARK   23  A    between atoms: CA_49  and  C_50 
REMARK       I    between atoms: C_50  and  N_53 
REMARK   24  A    between atoms: N_53  and  CA_54 
REMARK   25  A    between atoms: CA_54  and  C_55 
REMARK       I    between atoms: C_55  and  N_58 
REMARK   26  A    between atoms: N_58  and  CA_59 
REMARK   27  A    between atoms: CA_59  and  CB_62 
REMARK   28  A    between atoms: CA_59  and  C_60 
REMARK       I    between atoms: C_60  and  N_74 
REMARK   29  A    between atoms: CB_62  and  CG_63 
REMARK   30  A    between atoms: N_74  and  CA_75 
REMARK   31  A    between atoms: CA_75  and  C_76 
REMARK   32  A    between atoms: CA_75  and  CB_78 
REMARK       I    between atoms: C_76  and  N_83 
REMARK   33  A    between atoms: CB_78  and  CG_79 
REMARK   34  A    between atoms: N_83  and  CA_84 
REMARK   35  A    between atoms: CA_84  and  CB_87 
REMARK   36  A    between atoms: CA_84  and  C_85 
REMARK       I    between atoms: C_85  and  N_100 
REMARK   37  A    between atoms: CB_87  and  CG_88 
REMARK   38  A    between atoms: CG_88  and  CD_89 
REMARK   39  A    between atoms: CD_89  and  NE_90 
REMARK       I    between atoms: NE_90  and  CZ_91 
REMARK       I    between atoms: CZ_91  and  NH1_92 
REMARK   40  A    between atoms: N_100  and  CA_101 
REMARK   41  A    between atoms: CA_101  and  CB_104 
REMARK   42  A    between atoms: CA_101  and  C_102 
REMARK       I    between atoms: C_102  and  N_109 
REMARK   43  A    between atoms: CB_104  and  CG_105 
REMARK   44  A    between atoms: N_109  and  CA_110 
REMARK   45  A    between atoms: CA_110  and  CB_113 
REMARK   46  A    between atoms: CA_110  and  C_111 
REMARK       I    between atoms: C_111  and  N_121 
REMARK   47  A    between atoms: CB_113  and  CG_114 
REMARK   48  A    between atoms: N_121  and  CA_122 
REMARK   49  A    between atoms: CA_122  and  C_123 
REMARK       I    between atoms: C_123  and  N_126 
REMARK   50  A    between atoms: N_126  and  CA_127 
REMARK   51  A    between atoms: CA_127  and  CB_130 
REMARK   52  A    between atoms: CA_127  and  C_128 
REMARK       I    between atoms: C_128  and  N_135 
REMARK   53  A    between atoms: CB_130  and  CG_131 
REMARK   54  A    between atoms: N_135  and  CA_136 
REMARK   55  A    between atoms: CA_136  and  CB_139 
REMARK   56  A    between atoms: CA_136  and  C_137 
REMARK       I    between atoms: C_137  and  N_148 
REMARK   57  A    between atoms: CB_139  and  CG_140 
REMARK   58  A    between atoms: CG_140  and  CD_141 
REMARK   59  A    between atoms: CD_141  and  CE_142 
REMARK   60  A    between atoms: CE_142  and  NZ_143 
REMARK   61  A    between atoms: N_148  and  CA_149 
REMARK   62  A    between atoms: CA_149  and  CB_152 
REMARK   63  A    between atoms: CA_149  and  C_150 
REMARK       I    between atoms: C_150  and  N_157 
REMARK   64  A    between atoms: CB_152  and  CG_153 
REMARK   65  A    between atoms: N_157  and  CA_158 
REMARK   66  A    between atoms: CA_158  and  C_159 
REMARK   67  A    between atoms: CA_158  and  CB_161 
REMARK       I    between atoms: C_159  and  N_170 
REMARK   68  A    between atoms: CB_161  and  CG_162 
REMARK   69  A    between atoms: CG_162  and  CD_163 
REMARK   70  A    between atoms: CD_163  and  CE_164 
REMARK   71  A    between atoms: CE_164  and  NZ_165 
REMARK   72  A    between atoms: N_170  and  CA_171 
REMARK   73  A    between atoms: CA_171  and  CB_174 
REMARK   74  A    between atoms: CA_171  and  C_172 
REMARK       I    between atoms: C_172  and  N_183 
REMARK   75  A    between atoms: CB_174  and  CG_175 
REMARK   76  A    between atoms: CG_175  and  CD_176 
REMARK   77  A    between atoms: CD_176  and  CE_177 
REMARK   78  A    between atoms: CE_177  and  NZ_178 
REMARK   79  A    between atoms: N_183  and  CA_184 
REMARK   80  A    between atoms: CA_184  and  CB_187 
REMARK   81  A    between atoms: CA_184  and  C_185 
REMARK   82  A    between atoms: CB_187  and  CG_188 
ROOT
ATOM      1  N   LEU     1      67.483  41.730  37.860  1.00  0.00    -0.058 N 
ATOM      2  H1  LEU     1      67.739  40.769  37.828  1.00 99.99     0.276 HD
ATOM      3  H2  LEU     1      66.724  41.861  38.473  1.00 99.99     0.276 HD
ATOM      4  H3  LEU     1      67.142  42.000  36.967  1.00 99.99     0.276 HD
ENDROOT
BRANCH   1   5
ATOM      5  CA  LEU     1      68.668  42.546  38.244  1.00  0.00     0.255 C 
BRANCH   5   6
ATOM      6  CB  LEU     1      68.528  43.999  37.754  1.00  0.00     0.040 C 
BRANCH   6   7
ATOM      7  CG  LEU     1      69.352  44.334  36.494  1.00  0.00     0.002 C 
ATOM      8  CD2 LEU     1      68.506  44.104  35.240  1.00  0.00     0.000 C 
ATOM      9  CD1 LEU     1      70.632  43.494  36.397  1.00  0.00     0.000 C 
ENDBRANCH   6   7
ENDBRANCH   5   6
BRANCH   5  10
ATOM     10  C   LEU     1      68.946  42.393  39.753  1.00  0.00     0.259 C 
ATOM     11  N   ALA     2      70.159  42.744  40.213  1.00  0.00    -0.338 N 
ATOM     12  H   ALA     2      70.901  42.926  39.569  1.00 99.99     0.164 HD
ATOM     13  O   LEU     1      67.984  42.171  40.489  1.00  0.00    -0.271 OA
BRANCH  11  14
ATOM     14  CA  ALA     2      70.591  42.834  41.632  1.00  0.00     0.159 C 
ATOM     15  CB  ALA     2      70.517  44.300  42.084  1.00  0.00     0.034 C 
BRANCH  14  16
ATOM     16  C   ALA     2      69.931  41.885  42.651  1.00  0.00     0.251 C 
ATOM     17  N   LEU     3      68.887  42.351  43.350  1.00  0.00    -0.338 N 
ATOM     18  H   LEU     3      68.677  43.327  43.344  1.00 99.99     0.164 HD
ATOM     19  O   ALA     2      70.371  40.740  42.766  1.00  0.00    -0.271 OA
BRANCH  17  20
ATOM     20  CA  LEU     3      68.021  41.569  44.260  1.00  0.00     0.159 C 
BRANCH  20  21
ATOM     21  CB  LEU     3      67.312  42.528  45.233  1.00  0.00     0.032 C 
BRANCH  21  22
ATOM     22  CG  LEU     3      68.243  43.522  45.937  1.00  0.00     0.002 C 
ATOM     23  CD2 LEU     3      69.248  42.798  46.834  1.00  0.00     0.000 C 
ATOM     24  CD1 LEU     3      67.416  44.487  46.789  1.00  0.00     0.000 C 
ENDBRANCH  21  22
ENDBRANCH  20  21
BRANCH  20  25
ATOM     25  C   LEU     3      66.974  40.677  43.569  1.00  0.00     0.251 C 
ATOM     26  N   LYS     4      67.350  39.420  43.306  1.00  0.00    -0.338 N 
ATOM     27  H   LYS     4      68.238  39.075  43.617  1.00 99.99     0.164 HD
ATOM     28  O   LEU     3      65.830  41.102  43.409  1.00  0.00    -0.271 OA
BRANCH  26  29
ATOM     29  CA  LYS     4      66.503  38.404  42.648  1.00  0.00     0.159 C 
BRANCH  29  30
ATOM     30  CB  LYS     4      65.414  37.902  43.611  1.00  0.00     0.032 C 
BRANCH  30  31
ATOM     31  CG  LYS     4      65.912  36.931  44.687  1.00  0.00     0.004 C 
BRANCH  31  32
ATOM     32  CD  LYS     4      65.758  37.551  46.081  1.00  0.00     0.032 C 
BRANCH  32  33
ATOM     33  CE  LYS     4      67.114  37.918  46.693  1.00  0.00     0.206 C 
BRANCH  33  34
ATOM     34  NZ  LYS     4      68.236  37.325  45.946  1.00  0.00    -0.064 N 
ATOM     35  HZ3 LYS     4      68.949  38.012  45.807  1.00 99.99     0.275 HD
ATOM     36  HZ1 LYS     4      68.618  36.561  46.468  1.00 99.99     0.275 HD
ATOM     37  HZ2 LYS     4      67.919  36.991  45.058  1.00 99.99     0.275 HD
ENDBRANCH  33  34
ENDBRANCH  32  33
ENDBRANCH  31  32
ENDBRANCH  30  31
ENDBRANCH  29  30
BRANCH  29  38
ATOM     38  C   LYS     4      65.814  38.904  41.364  1.00  0.00     0.251 C 
ATOM     39  N   SER     5      64.582  39.390  41.522  1.00  0.00    -0.336 N 
ATOM     40  H   SER     5      64.145  39.396  42.418  1.00 99.99     0.164 HD
ATOM     41  O   LYS     4      66.378  38.811  40.275  1.00  0.00    -0.271 OA
BRANCH  39  42
ATOM     42  CA  SER     5      63.703  39.837  40.421  1.00  0.00     0.189 C 
BRANCH  42  43
ATOM     43  CB  SER     5      64.073  41.264  39.989  1.00  0.00     0.169 C 
BRANCH  43  44
ATOM     44  OG  SER     5      65.482  41.414  39.794  1.00  0.00    -0.380 OA
ATOM     45  HG  SER     5      65.729  42.374  39.929  1.00 99.99     0.211 HD
ENDBRANCH  43  44
ENDBRANCH  42  43
BRANCH  42  46
ATOM     46  C   SER     5      63.744  38.942  39.174  1.00  0.00     0.254 C 
ATOM     47  N   GLY     6      64.379  39.450  38.103  1.00  0.00    -0.336 N 
ATOM     48  H   GLY     6      65.051  40.207  38.163  1.00 99.99     0.164 HD
ATOM     49  O   SER     5      63.195  37.841  39.176  1.00  0.00    -0.270 OA
BRANCH  47  50
ATOM     50  CA  GLY     6      64.236  38.858  36.762  1.00  0.00     0.189 C 
BRANCH  50  51
ATOM     51  C   GLY     6      63.123  39.440  35.894  1.00  0.00     0.253 C 
ATOM     52  O   GLY     6      63.370  40.252  34.999  1.00  0.00    -0.270 OA
ATOM     53  N   GLY     7      61.902  38.971  36.200  1.00  0.00    -0.336 N 
ATOM     54  H   GLY     7      61.780  38.142  36.761  1.00 99.99     0.164 HD
BRANCH  53  55
ATOM     55  CA  GLY     7      60.628  39.556  35.743  1.00  0.00     0.189 C 
BRANCH  55  56
ATOM     56  C   GLY     7      60.059  40.742  36.532  1.00  0.00     0.253 C 
ATOM     57  N   TRP     8      60.969  41.513  37.120  1.00  0.00    -0.337 N 
ATOM     58  H   TRP     8      61.923  41.477  36.798  1.00 99.99     0.164 HD
ATOM     59  O   GLY     7      58.851  40.993  36.514  1.00  0.00    -0.270 OA
BRANCH  57  60
ATOM     60  CA  TRP     8      60.737  42.477  38.209  1.00  0.00     0.164 C 
BRANCH  60  61
ATOM     61  CB  TRP     8      60.118  43.758  37.637  1.00  0.00     0.059 C 
BRANCH  61  62
ATOM     62  CG  TRP     8      60.724  44.096  36.270  1.00  0.00    -0.016 A 
ATOM     63  CD2 TRP     8      62.048  44.425  36.023  1.00  0.00    -0.001 A 
ATOM     64  CE2 TRP     8      62.147  44.660  34.662  1.00  0.00     0.042 A 
ATOM     65  CE3 TRP     8      63.168  44.514  36.840  1.00  0.00     0.014 A 
ATOM     66  CZ2 TRP     8      63.377  45.001  34.108  1.00  0.00     0.030 A 
ATOM     67  NE1 TRP     8      60.937  44.474  34.139  1.00  0.00    -0.365 N 
ATOM     68  CH2 TRP     8      64.503  45.102  34.926  1.00  0.00     0.002 A 
ATOM     69  CZ3 TRP     8      64.395  44.846  36.290  1.00  0.00     0.001 A 
ATOM     70  HE1 TRP     8      60.703  44.569  33.170  1.00 99.99     0.165 HD
ATOM     71  CD1 TRP     8      60.085  44.137  35.106  1.00  0.00     0.097 A 
ENDBRANCH  61  62
ENDBRANCH  60  61
BRANCH  60  72
ATOM     72  C   TRP     8      59.994  42.014  39.471  1.00  0.00     0.251 C 
ATOM     73  N   LEU     9      58.659  41.930  39.434  1.00  0.00    -0.338 N 
ATOM     74  H   LEU     9      58.128  42.227  38.638  1.00 99.99     0.164 HD
ATOM     75  O   TRP     8      60.658  41.585  40.417  1.00  0.00    -0.271 OA
BRANCH  73  76
ATOM     76  CA  LEU     9      57.867  41.443  40.582  1.00  0.00     0.159 C 
BRANCH  76  77
ATOM     77  C   LEU     9      58.556  41.620  41.944  1.00  0.00     0.251 C 
ATOM     78  N   ARG    10      58.790  42.878  42.329  1.00  0.00    -0.338 N 
ATOM     79  H   ARG    10      58.524  43.662  41.762  1.00 99.99     0.164 HD
ATOM     80  O   LEU     9      58.610  40.665  42.720  1.00  0.00    -0.271 OA
BRANCH  78  81
ATOM     81  CA  ARG    10      59.371  43.232  43.638  1.00  0.00     0.159 C 
BRANCH  81  82
ATOM     82  CB  ARG    10      58.307  43.255  44.743  1.00  0.00     0.034 C 
BRANCH  82  83
ATOM     83  CG  ARG    10      58.814  43.977  45.994  1.00  0.00     0.027 C 
BRANCH  83  84
ATOM     84  CD  ARG    10      57.706  44.223  47.024  1.00  0.00     0.116 C 
BRANCH  84  85
ATOM     85  NE  ARG    10      57.222  42.963  47.620  1.00  0.00    -0.212 N 
ATOM     86  CZ  ARG    10      56.271  42.844  48.551  1.00  0.00     0.666 C 
ATOM     87  NH2 ARG    10      56.029  41.670  49.116  1.00  0.00    -0.235 N 
ATOM     88  NH1 ARG    10      55.596  43.895  49.000  1.00  0.00    -0.235 N 
ATOM     89 2HH2 ARG    10      56.573  40.868  48.872  1.00 99.99     0.174 HD
ATOM     90 1HH2 ARG    10      55.329  41.605  49.825  1.00 99.99     0.174 HD
ATOM     91 1HH1 ARG    10      54.892  43.797  49.697  1.00 99.99     0.174 HD
ATOM     92 2HH1 ARG    10      55.807  44.797  48.620  1.00 99.99     0.174 HD
ATOM     93  HE  ARG    10      57.675  42.140  47.286  1.00 99.99     0.178 HD
ENDBRANCH  84  85
ENDBRANCH  83  84
ENDBRANCH  82  83
ENDBRANCH  81  82
BRANCH  81  94
ATOM     94  C   ARG    10      60.533  42.321  44.059  1.00  0.00     0.251 C 
ATOM     95  N   LEU    11      60.237  41.317  44.889  1.00  0.00    -0.338 N 
ATOM     96  H   LEU    11      59.326  41.226  45.292  1.00 99.99     0.164 HD
ATOM     97  O   ARG    10      61.650  42.488  43.571  1.00  0.00    -0.271 OA
BRANCH  95  98
ATOM     98  CA  LEU    11      61.204  40.279  45.296  1.00  0.00     0.159 C 
BRANCH  98  99
ATOM     99  CB  LEU    11      61.766  39.559  44.061  1.00  0.00     0.032 C 
BRANCH  99 100
ATOM    100  CG  LEU    11      61.361  38.083  43.961  1.00  0.00     0.002 C 
ATOM    101  CD1 LEU    11      61.798  37.531  42.604  1.00  0.00     0.000 C 
ATOM    102  CD2 LEU    11      61.996  37.251  45.081  1.00  0.00     0.000 C 
ENDBRANCH  99 100
ENDBRANCH  98  99
BRANCH  98 103
ATOM    103  C   LEU    11      62.366  40.833  46.136  1.00  0.00     0.251 C 
ATOM    104  O   LEU    11      63.531  40.604  45.815  1.00  0.00    -0.271 OA
ATOM    105  N   PHE    12      62.029  41.580  47.189  1.00  0.00    -0.337 N 
ATOM    106  H   PHE    12      61.076  41.858  47.346  1.00 99.99     0.164 HD
BRANCH 105 107
ATOM    107  CA  PHE    12      63.009  42.150  48.132  1.00  0.00     0.164 C 
BRANCH 107 108
ATOM    108  CB  PHE    12      62.354  43.200  49.032  1.00  0.00     0.056 C 
BRANCH 108 109
ATOM    109  CG  PHE    12      63.131  44.517  49.242  1.00  0.00    -0.044 A 
ATOM    110  CD1 PHE    12      62.518  45.755  49.373  1.00  0.00     0.008 A 
ATOM    111  CE1 PHE    12      63.285  46.907  49.448  1.00  0.00     0.001 A 
ATOM    112  CZ  PHE    12      64.679  46.832  49.374  1.00  0.00     0.000 A 
ATOM    113  CE2 PHE    12      65.287  45.579  49.247  1.00  0.00     0.001 A 
ATOM    114  CD2 PHE    12      64.507  44.433  49.188  1.00  0.00     0.008 A 
ENDBRANCH 108 109
ENDBRANCH 107 108
BRANCH 107 115
ATOM    115  C   PHE    12      63.711  41.119  49.036  1.00  0.00     0.251 C 
ATOM    116  O   PHE    12      64.909  40.887  48.867  1.00  0.00    -0.271 OA
ATOM    117  N   GLY    13      63.044  40.745  50.140  1.00  0.00    -0.336 N 
ATOM    118  H   GLY    13      62.122  41.087  50.381  1.00 99.99     0.164 HD
BRANCH 117 119
ATOM    119  CA  GLY    13      63.610  39.812  51.134  1.00  0.00     0.189 C 
BRANCH 119 120
ATOM    120  C   GLY    13      62.776  39.717  52.425  1.00  0.00     0.253 C 
ATOM    121  N   LEU    14      62.470  40.880  52.999  1.00  0.00    -0.337 N 
ATOM    122  H   LEU    14      62.816  41.733  52.610  1.00 99.99     0.164 HD
ATOM    123  O   GLY    13      62.548  38.628  52.952  1.00  0.00    -0.270 OA
BRANCH 121 124
ATOM    124  CA  LEU    14      61.626  41.034  54.196  1.00  0.00     0.159 C 
BRANCH 124 125
ATOM    125  CB  LEU    14      60.277  40.334  53.978  1.00  0.00     0.032 C 
BRANCH 125 126
ATOM    126  CG  LEU    14      59.080  41.290  53.891  1.00  0.00     0.002 C 
ATOM    127  CD2 LEU    14      57.747  40.535  53.869  1.00  0.00     0.000 C 
ATOM    128  CD1 LEU    14      59.208  42.148  52.632  1.00  0.00     0.000 C 
ENDBRANCH 125 126
ENDBRANCH 124 125
BRANCH 124 129
ATOM    129  C   LEU    14      62.295  40.467  55.455  1.00  0.00     0.251 C 
ATOM    130  N   LYS    15      61.454  40.229  56.459  1.00  0.00    -0.338 N 
ATOM    131  H   LYS    15      60.471  40.383  56.362  1.00 99.99     0.164 HD
ATOM    132  O   LEU    14      63.504  40.243  55.503  1.00  0.00    -0.271 OA
BRANCH 130 133
ATOM    133  CA  LYS    15      61.870  39.724  57.776  1.00  0.00     0.159 C 
BRANCH 133 134
ATOM    134  CB  LYS    15      62.439  38.300  57.651  1.00  0.00     0.032 C 
BRANCH 134 135
ATOM    135  CG  LYS    15      62.160  37.467  58.905  1.00  0.00     0.004 C 
BRANCH 135 136
ATOM    136  CD  LYS    15      62.275  35.964  58.650  1.00  0.00     0.032 C 
BRANCH 136 137
ATOM    137  CE  LYS    15      60.905  35.411  58.252  1.00  0.00     0.206 C 
BRANCH 137 138
ATOM    138  NZ  LYS    15      59.877  35.731  59.253  1.00  0.00    -0.064 N 
ATOM    139  HZ3 LYS    15      60.171  36.520  59.790  1.00 99.99     0.275 HD
ATOM    140  HZ2 LYS    15      59.737  34.944  59.854  1.00 99.99     0.275 HD
ATOM    141  HZ1 LYS    15      59.021  35.948  58.783  1.00 99.99     0.275 HD
ENDBRANCH 137 138
ENDBRANCH 136 137
ENDBRANCH 135 136
ENDBRANCH 134 135
ENDBRANCH 133 134
BRANCH 133 142
ATOM    142  C   LYS    15      62.903  40.651  58.421  1.00  0.00     0.251 C 
ATOM    143  N   ASP    16      64.161  40.310  58.165  1.00  0.00    -0.337 N 
ATOM    144  H   ASP    16      64.323  39.454  57.670  1.00 99.99     0.164 HD
ATOM    145  O   LYS    15      62.575  41.678  59.018  1.00  0.00    -0.271 OA
BRANCH 143 146
ATOM    146  CA  ASP    16      65.392  41.001  58.614  1.00  0.00     0.170 C 
BRANCH 146 147
ATOM    147  CB  ASP    16      66.474  39.981  59.040  1.00  0.00     0.129 C 
BRANCH 147 148
ATOM    148  CG  ASP    16      66.537  38.719  58.170  1.00  0.00     0.188 C 
ATOM    149  OD1 ASP    16      65.818  37.761  58.528  1.00  0.00    -0.647 OA
ATOM    150  OD2 ASP    16      67.019  38.851  57.025  1.00  0.00    -0.647 OA
ENDBRANCH 147 148
ENDBRANCH 146 147
BRANCH 146 151
ATOM    151  C   ASP    16      66.003  42.022  57.635  1.00  0.00     0.251 C 
ATOM    152  O   ASP    16      65.340  42.988  57.258  1.00  0.00    -0.271 OA
ATOM    153  N   LYS    17      67.269  41.820  57.263  1.00  0.00    -0.338 N 
ATOM    154  H   LYS    17      67.845  41.151  57.729  1.00 99.99     0.164 HD
BRANCH 153 155
ATOM    155  CA  LYS    17      67.977  42.642  56.257  1.00  0.00     0.159 C 
BRANCH 155 156
ATOM    156  C   LYS    17      68.936  41.831  55.361  1.00  0.00     0.251 C 
ATOM    157  N   LYS    18      69.354  40.677  55.884  1.00  0.00    -0.338 N 
ATOM    158  H   LYS    18      69.147  40.490  56.841  1.00 99.99     0.164 HD
ATOM    159  O   LYS    17      69.376  42.276  54.298  1.00  0.00    -0.271 OA
BRANCH 157 160
ATOM    160  CA  LYS    18      70.241  39.679  55.236  1.00  0.00     0.159 C 
BRANCH 160 161
ATOM    161  CB  LYS    18      71.022  38.866  56.273  1.00  0.00     0.032 C 
BRANCH 161 162
ATOM    162  CG  LYS    18      70.499  39.020  57.698  1.00  0.00     0.004 C 
BRANCH 162 163
ATOM    163  CD  LYS    18      70.873  37.759  58.472  1.00  0.00     0.032 C 
BRANCH 163 164
ATOM    164  CE  LYS    18      71.225  38.079  59.920  1.00  0.00     0.206 C 
BRANCH 164 165
ATOM    165  NZ  LYS    18      70.627  39.371  60.285  1.00  0.00    -0.064 N 
ATOM    166  HZ2 LYS    18      69.633  39.277  60.330  1.00 99.99     0.275 HD
ATOM    167  HZ1 LYS    18      70.873  40.059  59.604  1.00 99.99     0.275 HD
ATOM    168  HZ3 LYS    18      70.975  39.648  61.181  1.00 99.99     0.275 HD
ENDBRANCH 164 165
ENDBRANCH 163 164
ENDBRANCH 162 163
ENDBRANCH 161 162
ENDBRANCH 160 161
BRANCH 160 169
ATOM    169  C   LYS    18      69.507  38.655  54.354  1.00  0.00     0.251 C 
ATOM    170  O   LYS    18      69.084  37.597  54.822  1.00  0.00    -0.271 OA
ATOM    171  N   HIS    19      69.140  39.117  53.159  1.00  0.00    -0.336 N 
ATOM    172  H   HIS    19      69.329  40.064  52.906  1.00 99.99     0.164 HD
BRANCH 171 173
ATOM    173  CA  HIS    19      68.456  38.358  52.102  1.00  0.00     0.174 C 
BRANCH 173 174
ATOM    174  CB  HIS    19      66.984  38.808  52.182  1.00  0.00     0.078 C 
BRANCH 174 175
ATOM    175  CG  HIS    19      66.065  37.935  53.047  1.00  0.00     0.057 A 
ATOM    176  CD2 HIS    19      65.906  36.621  52.917  1.00  0.00     0.113 A 
ATOM    177  NE2 HIS    19      65.371  36.148  54.034  1.00  0.00    -0.223 NA
ATOM    178  CE1 HIS    19      65.149  37.178  54.842  1.00  0.00     0.175 A 
ATOM    179  ND1 HIS    19      65.552  38.284  54.223  1.00  0.00    -0.338 N 
ATOM    180  HD1 HIS    19      65.402  39.219  54.549  1.00 99.99     0.167 HD
ENDBRANCH 174 175
ENDBRANCH 173 174
BRANCH 173 181
ATOM    181  C   HIS    19      69.090  38.725  50.744  1.00  0.00     0.207 C 
ATOM    182  OXT HIS    19      68.406  39.475  50.014  1.00 99.99    -0.646 OA
ATOM    183  O   HIS    19      70.213  38.249  50.467  1.00 99.99    -0.646 OA
ENDBRANCH 173 181
ENDBRANCH 171 173
ENDBRANCH 160 169
ENDBRANCH 157 160
ENDBRANCH 155 156
BRANCH 155 184
ATOM    184  CB  LYS    17      68.721  43.776  56.982  1.00  0.00     0.032 C 
BRANCH 184 185
ATOM    185  CG  LYS    17      68.542  45.135  56.302  1.00  0.00     0.004 C 
BRANCH 185 186
ATOM    186  CD  LYS    17      69.866  45.896  56.277  1.00  0.00     0.032 C 
BRANCH 186 187
ATOM    187  CE  LYS    17      70.631  45.596  54.988  1.00  0.00     0.206 C 
BRANCH 187 188
ATOM    188  NZ  LYS    17      69.703  45.448  53.860  1.00  0.00    -0.064 N 
ATOM    189  HZ1 LYS    17      70.223  45.324  53.016  1.00 99.99     0.275 HD
ATOM    190  HZ3 LYS    17      69.139  46.271  53.788  1.00 99.99     0.275 HD
ATOM    191  HZ2 LYS    17      69.115  44.654  54.013  1.00 99.99     0.275 HD
ENDBRANCH 187 188
ENDBRANCH 186 187
ENDBRANCH 185 186
ENDBRANCH 184 185
ENDBRANCH 155 184
ENDBRANCH 153 155
ENDBRANCH 146 151
ENDBRANCH 143 146
ENDBRANCH 133 142
ENDBRANCH 130 133
ENDBRANCH 124 129
ENDBRANCH 121 124
ENDBRANCH 119 120
ENDBRANCH 117 119
ENDBRANCH 107 115
ENDBRANCH 105 107
ENDBRANCH  98 103
ENDBRANCH  95  98
ENDBRANCH  81  94
ENDBRANCH  78  81
ENDBRANCH  76  77
BRANCH  76 192
ATOM    192  CB  LEU     9      57.445  39.976  40.391  1.00  0.00     0.032 C 
BRANCH 192 193
ATOM    193  CG  LEU     9      58.292  39.222  39.357  1.00  0.00     0.002 C 
ATOM    194  CD2 LEU     9      57.422  38.397  38.400  1.00  0.00     0.000 C 
ATOM    195  CD1 LEU     9      59.270  38.295  40.079  1.00  0.00     0.000 C 
ENDBRANCH 192 193
ENDBRANCH  76 192
ENDBRANCH  73  76
ENDBRANCH  60  72
ENDBRANCH  57  60
ENDBRANCH  55  56
ENDBRANCH  53  55
ENDBRANCH  50  51
ENDBRANCH  47  50
ENDBRANCH  42  46
ENDBRANCH  39  42
ENDBRANCH  29  38
ENDBRANCH  26  29
ENDBRANCH  20  25
ENDBRANCH  17  20
ENDBRANCH  14  16
ENDBRANCH  11  14
ENDBRANCH   5  10
ENDBRANCH   1   5
TORSDOF 82
ENDMDL
MODEL 9
REMARK VINA RESULT:      -3.2      3.108     11.486
REMARK WARNING: 32 MAX_TORS EXCEEDED!!!
REMARK  82 active torsions:
REMARK  status: ('A' for Active; 'I' for Inactive)
REMARK    1  A    between atoms: N_1  and  CA_2 
REMARK    2  A    between atoms: CA_2  and  CB_5 
REMARK    3  A    between atoms: CA_2  and  C_3 
REMARK       I    between atoms: C_3  and  N_12 
REMARK    4  A    between atoms: CB_5  and  CG_6 
REMARK    5  A    between atoms: N_12  and  CA_13 
REMARK    6  A    between atoms: CA_13  and  C_14 
REMARK       I    between atoms: C_14  and  N_18 
REMARK    7  A    between atoms: N_18  and  CA_19 
REMARK    8  A    between atoms: CA_19  and  CB_22 
REMARK    9  A    between atoms: CA_19  and  C_20 
REMARK       I    between atoms: C_20  and  N_27 
REMARK   10  A    between atoms: CB_22  and  CG_23 
REMARK   11  A    between atoms: N_27  and  CA_28 
REMARK   12  A    between atoms: CA_28  and  CB_31 
REMARK   13  A    between atoms: CA_28  and  C_29 
REMARK       I    between atoms: C_29  and  N_40 
REMARK   14  A    between atoms: CB_31  and  CG_32 
REMARK   15  A    between atoms: CG_32  and  CD_33 
REMARK   16  A    between atoms: CD_33  and  CE_34 
REMARK   17  A    between atoms: CE_34  and  NZ_35 
REMARK   18  A    between atoms: N_40  and  CA_41 
REMARK   19  A    between atoms: CA_41  and  CB_44 
REMARK   20  A    between atoms: CA_41  and  C_42 
REMARK       I    between atoms: C_42  and  N_48 
REMARK   21  A    between atoms: CB_44  and  OG_45 
REMARK   22  A    between atoms: N_48  and  CA_49 
REMARK   23  A    between atoms: CA_49  and  C_50 
REMARK       I    between atoms: C_50  and  N_53 
REMARK   24  A    between atoms: N_53  and  CA_54 
REMARK   25  A    between atoms: CA_54  and  C_55 
REMARK       I    between atoms: C_55  and  N_58 
REMARK   26  A    between atoms: N_58  and  CA_59 
REMARK   27  A    between atoms: CA_59  and  CB_62 
REMARK   28  A    between atoms: CA_59  and  C_60 
REMARK       I    between atoms: C_60  and  N_74 
REMARK   29  A    between atoms: CB_62  and  CG_63 
REMARK   30  A    between atoms: N_74  and  CA_75 
REMARK   31  A    between atoms: CA_75  and  C_76 
REMARK   32  A    between atoms: CA_75  and  CB_78 
REMARK       I    between atoms: C_76  and  N_83 
REMARK   33  A    between atoms: CB_78  and  CG_79 
REMARK   34  A    between atoms: N_83  and  CA_84 
REMARK   35  A    between atoms: CA_84  and  CB_87 
REMARK   36  A    between atoms: CA_84  and  C_85 
REMARK       I    between atoms: C_85  and  N_100 
REMARK   37  A    between atoms: CB_87  and  CG_88 
REMARK   38  A    between atoms: CG_88  and  CD_89 
REMARK   39  A    between atoms: CD_89  and  NE_90 
REMARK       I    between atoms: NE_90  and  CZ_91 
REMARK       I    between atoms: CZ_91  and  NH1_92 
REMARK   40  A    between atoms: N_100  and  CA_101 
REMARK   41  A    between atoms: CA_101  and  CB_104 
REMARK   42  A    between atoms: CA_101  and  C_102 
REMARK       I    between atoms: C_102  and  N_109 
REMARK   43  A    between atoms: CB_104  and  CG_105 
REMARK   44  A    between atoms: N_109  and  CA_110 
REMARK   45  A    between atoms: CA_110  and  CB_113 
REMARK   46  A    between atoms: CA_110  and  C_111 
REMARK       I    between atoms: C_111  and  N_121 
REMARK   47  A    between atoms: CB_113  and  CG_114 
REMARK   48  A    between atoms: N_121  and  CA_122 
REMARK   49  A    between atoms: CA_122  and  C_123 
REMARK       I    between atoms: C_123  and  N_126 
REMARK   50  A    between atoms: N_126  and  CA_127 
REMARK   51  A    between atoms: CA_127  and  CB_130 
REMARK   52  A    between atoms: CA_127  and  C_128 
REMARK       I    between atoms: C_128  and  N_135 
REMARK   53  A    between atoms: CB_130  and  CG_131 
REMARK   54  A    between atoms: N_135  and  CA_136 
REMARK   55  A    between atoms: CA_136  and  CB_139 
REMARK   56  A    between atoms: CA_136  and  C_137 
REMARK       I    between atoms: C_137  and  N_148 
REMARK   57  A    between atoms: CB_139  and  CG_140 
REMARK   58  A    between atoms: CG_140  and  CD_141 
REMARK   59  A    between atoms: CD_141  and  CE_142 
REMARK   60  A    between atoms: CE_142  and  NZ_143 
REMARK   61  A    between atoms: N_148  and  CA_149 
REMARK   62  A    between atoms: CA_149  and  CB_152 
REMARK   63  A    between atoms: CA_149  and  C_150 
REMARK       I    between atoms: C_150  and  N_157 
REMARK   64  A    between atoms: CB_152  and  CG_153 
REMARK   65  A    between atoms: N_157  and  CA_158 
REMARK   66  A    between atoms: CA_158  and  C_159 
REMARK   67  A    between atoms: CA_158  and  CB_161 
REMARK       I    between atoms: C_159  and  N_170 
REMARK   68  A    between atoms: CB_161  and  CG_162 
REMARK   69  A    between atoms: CG_162  and  CD_163 
REMARK   70  A    between atoms: CD_163  and  CE_164 
REMARK   71  A    between atoms: CE_164  and  NZ_165 
REMARK   72  A    between atoms: N_170  and  CA_171 
REMARK   73  A    between atoms: CA_171  and  CB_174 
REMARK   74  A    between atoms: CA_171  and  C_172 
REMARK       I    between atoms: C_172  and  N_183 
REMARK   75  A    between atoms: CB_174  and  CG_175 
REMARK   76  A    between atoms: CG_175  and  CD_176 
REMARK   77  A    between atoms: CD_176  and  CE_177 
REMARK   78  A    between atoms: CE_177  and  NZ_178 
REMARK   79  A    between atoms: N_183  and  CA_184 
REMARK   80  A    between atoms: CA_184  and  CB_187 
REMARK   81  A    between atoms: CA_184  and  C_185 
REMARK   82  A    between atoms: CB_187  and  CG_188 
ROOT
ATOM      1  N   LEU     1      63.644  42.472  50.323  1.00  0.00    -0.058 N 
ATOM      2  H1  LEU     1      63.537  41.864  51.104  1.00 99.99     0.276 HD
ATOM      3  H2  LEU     1      63.229  42.074  49.523  1.00 99.99     0.276 HD
ATOM      4  H3  LEU     1      64.609  42.545  50.103  1.00 99.99     0.276 HD
ENDROOT
BRANCH   1   5
ATOM      5  CA  LEU     1      63.071  43.807  50.652  1.00  0.00     0.255 C 
BRANCH   5   6
ATOM      6  CB  LEU     1      62.633  44.555  49.379  1.00  0.00     0.040 C 
BRANCH   6   7
ATOM      7  CG  LEU     1      63.367  45.890  49.135  1.00  0.00     0.002 C 
ATOM      8  CD2 LEU     1      64.676  45.918  49.926  1.00  0.00     0.000 C 
ATOM      9  CD1 LEU     1      62.514  47.102  49.530  1.00  0.00     0.000 C 
ENDBRANCH   6   7
ENDBRANCH   5   6
BRANCH   5  10
ATOM     10  C   LEU     1      61.977  43.659  51.729  1.00  0.00     0.259 C 
ATOM     11  N   ALA     2      61.217  42.551  51.711  1.00  0.00    -0.338 N 
ATOM     12  H   ALA     2      61.248  41.939  50.921  1.00 99.99     0.164 HD
ATOM     13  O   LEU     1      62.000  44.446  52.676  1.00  0.00    -0.271 OA
BRANCH  11  14
ATOM     14  CA  ALA     2      60.225  42.124  52.732  1.00  0.00     0.159 C 
ATOM     15  CB  ALA     2      58.830  42.091  52.090  1.00  0.00     0.034 C 
BRANCH  14  16
ATOM     16  C   ALA     2      60.519  40.841  53.534  1.00  0.00     0.251 C 
ATOM     17  N   LEU     3      61.220  40.964  54.670  1.00  0.00    -0.338 N 
ATOM     18  H   LEU     3      61.688  41.821  54.878  1.00 99.99     0.164 HD
ATOM     19  O   ALA     2      60.085  39.768  53.115  1.00  0.00    -0.271 OA
BRANCH  17  20
ATOM     20  CA  LEU     3      61.480  39.897  55.660  1.00  0.00     0.159 C 
BRANCH  20  21
ATOM     21  CB  LEU     3      62.768  40.229  56.437  1.00  0.00     0.032 C 
BRANCH  21  22
ATOM     22  CG  LEU     3      64.015  40.386  55.559  1.00  0.00     0.002 C 
ATOM     23  CD2 LEU     3      64.602  39.025  55.183  1.00  0.00     0.000 C 
ATOM     24  CD1 LEU     3      65.073  41.196  56.311  1.00  0.00     0.000 C 
ENDBRANCH  21  22
ENDBRANCH  20  21
BRANCH  20  25
ATOM     25  C   LEU     3      60.338  39.628  56.657  1.00  0.00     0.251 C 
ATOM     26  N   LYS     4      60.485  40.153  57.879  1.00  0.00    -0.338 N 
ATOM     27  H   LYS     4      61.262  40.748  58.091  1.00 99.99     0.164 HD
ATOM     28  O   LEU     3      59.314  39.070  56.264  1.00  0.00    -0.271 OA
BRANCH  26  29
ATOM     29  CA  LYS     4      59.512  40.012  58.982  1.00  0.00     0.159 C 
BRANCH  29  30
ATOM     30  CB  LYS     4      59.911  40.899  60.172  1.00  0.00     0.032 C 
BRANCH  30  31
ATOM     31  CG  LYS     4      61.155  41.764  59.936  1.00  0.00     0.004 C 
BRANCH  31  32
ATOM     32  CD  LYS     4      62.235  41.444  60.977  1.00  0.00     0.032 C 
BRANCH  32  33
ATOM     33  CE  LYS     4      63.545  42.181  60.683  1.00  0.00     0.206 C 
BRANCH  33  34
ATOM     34  NZ  LYS     4      64.302  41.548  59.590  1.00  0.00    -0.064 N 
ATOM     35  HZ3 LYS     4      63.671  41.227  58.884  1.00 99.99     0.275 HD
ATOM     36  HZ1 LYS     4      64.928  42.217  59.187  1.00 99.99     0.275 HD
ATOM     37  HZ2 LYS     4      64.830  40.774  59.941  1.00 99.99     0.275 HD
ENDBRANCH  33  34
ENDBRANCH  32  33
ENDBRANCH  31  32
ENDBRANCH  30  31
ENDBRANCH  29  30
BRANCH  29  38
ATOM     38  C   LYS     4      58.066  40.363  58.586  1.00  0.00     0.251 C 
ATOM     39  N   SER     5      57.253  39.324  58.390  1.00  0.00    -0.336 N 
ATOM     40  H   SER     5      57.587  38.389  58.476  1.00 99.99     0.164 HD
ATOM     41  O   LYS     4      57.727  41.535  58.431  1.00  0.00    -0.271 OA
BRANCH  39  42
ATOM     42  CA  SER     5      55.856  39.422  57.918  1.00  0.00     0.189 C 
BRANCH  42  43
ATOM     43  CB  SER     5      55.039  40.328  58.852  1.00  0.00     0.169 C 
BRANCH  43  44
ATOM     44  OG  SER     5      53.872  39.667  59.351  1.00  0.00    -0.380 OA
ATOM     45  HG  SER     5      53.842  39.768  60.345  1.00 99.99     0.211 HD
ENDBRANCH  43  44
ENDBRANCH  42  43
BRANCH  42  46
ATOM     46  C   SER     5      55.707  39.963  56.488  1.00  0.00     0.254 C 
ATOM     47  N   GLY     6      56.262  39.220  55.515  1.00  0.00    -0.336 N 
ATOM     48  H   GLY     6      56.490  38.239  55.627  1.00 99.99     0.164 HD
ATOM     49  O   SER     5      55.131  41.030  56.281  1.00  0.00    -0.270 OA
BRANCH  47  50
ATOM     50  CA  GLY     6      56.473  39.751  54.157  1.00  0.00     0.189 C 
BRANCH  50  51
ATOM     51  C   GLY     6      56.648  38.708  53.056  1.00  0.00     0.253 C 
ATOM     52  O   GLY     6      56.117  37.597  53.139  1.00  0.00    -0.270 OA
ATOM     53  N   GLY     7      57.402  39.132  52.028  1.00  0.00    -0.336 N 
ATOM     54  H   GLY     7      57.605  40.110  51.890  1.00 99.99     0.164 HD
BRANCH  53  55
ATOM     55  CA  GLY     7      57.976  38.266  50.982  1.00  0.00     0.189 C 
BRANCH  55  56
ATOM     56  C   GLY     7      57.348  38.318  49.583  1.00  0.00     0.253 C 
ATOM     57  N   TRP     8      57.788  39.304  48.807  1.00  0.00    -0.337 N 
ATOM     58  H   TRP     8      58.662  39.751  49.030  1.00 99.99     0.164 HD
ATOM     59  O   GLY     7      56.576  37.434  49.202  1.00  0.00    -0.270 OA
BRANCH  57  60
ATOM     60  CA  TRP     8      57.140  39.824  47.590  1.00  0.00     0.164 C 
BRANCH  60  61
ATOM     61  CB  TRP     8      56.830  41.315  47.772  1.00  0.00     0.059 C 
BRANCH  61  62
ATOM     62  CG  TRP     8      55.643  41.516  48.720  1.00  0.00    -0.016 A 
ATOM     63  CD2 TRP     8      54.489  40.748  48.756  1.00  0.00    -0.001 A 
ATOM     64  CE2 TRP     8      53.690  41.288  49.750  1.00  0.00     0.042 A 
ATOM     65  CE3 TRP     8      54.075  39.629  48.045  1.00  0.00     0.014 A 
ATOM     66  CZ2 TRP     8      52.455  40.711  50.032  1.00  0.00     0.030 A 
ATOM     67  NE1 TRP     8      54.348  42.320  50.271  1.00  0.00    -0.365 N 
ATOM     68  CH2 TRP     8      52.031  39.592  49.314  1.00  0.00     0.002 A 
ATOM     69  CZ3 TRP     8      52.850  39.049  48.329  1.00  0.00     0.001 A 
ATOM     70  HE1 TRP     8      54.018  42.903  51.016  1.00 99.99     0.165 HD
ATOM     71  CD1 TRP     8      55.519  42.456  49.651  1.00  0.00     0.097 A 
ENDBRANCH  61  62
ENDBRANCH  60  61
BRANCH  60  72
ATOM     72  C   TRP     8      57.787  39.552  46.225  1.00  0.00     0.251 C 
ATOM     73  N   LEU     9      57.398  38.474  45.533  1.00  0.00    -0.338 N 
ATOM     74  H   LEU     9      56.755  37.804  45.910  1.00 99.99     0.164 HD
ATOM     75  O   TRP     8      58.522  40.416  45.742  1.00  0.00    -0.271 OA
BRANCH  73  76
ATOM     76  CA  LEU     9      57.926  38.164  44.190  1.00  0.00     0.159 C 
BRANCH  76  77
ATOM     77  C   LEU     9      57.239  38.932  43.050  1.00  0.00     0.251 C 
ATOM     78  N   ARG    10      57.838  38.880  41.856  1.00  0.00    -0.338 N 
ATOM     79  H   ARG    10      58.685  38.362  41.713  1.00 99.99     0.164 HD
ATOM     80  O   LEU     9      56.076  39.312  43.196  1.00  0.00    -0.271 OA
BRANCH  78  81
ATOM     81  CA  ARG    10      57.275  39.493  40.638  1.00  0.00     0.159 C 
BRANCH  81  82
ATOM     82  CB  ARG    10      58.363  39.786  39.597  1.00  0.00     0.034 C 
BRANCH  82  83
ATOM     83  CG  ARG    10      58.435  41.280  39.267  1.00  0.00     0.027 C 
BRANCH  83  84
ATOM     84  CD  ARG    10      58.043  42.166  40.454  1.00  0.00     0.116 C 
BRANCH  84  85
ATOM     85  NE  ARG    10      59.212  42.847  41.041  1.00  0.00    -0.212 N 
ATOM     86  CZ  ARG    10      59.592  42.801  42.322  1.00  0.00     0.666 C 
ATOM     87  NH2 ARG    10      60.575  43.576  42.758  1.00  0.00    -0.235 N 
ATOM     88  NH1 ARG    10      58.957  42.051  43.213  1.00  0.00    -0.235 N 
ATOM     89 2HH2 ARG    10      61.023  44.222  42.141  1.00 99.99     0.174 HD
ATOM     90 1HH2 ARG    10      60.829  43.544  43.722  1.00 99.99     0.174 HD
ATOM     91 1HH1 ARG    10      59.244  42.027  44.166  1.00 99.99     0.174 HD
ATOM     92 2HH1 ARG    10      58.178  41.501  42.907  1.00 99.99     0.174 HD
ATOM     93  HE  ARG    10      59.744  43.395  40.400  1.00 99.99     0.178 HD
ENDBRANCH  84  85
ENDBRANCH  83  84
ENDBRANCH  82  83
ENDBRANCH  81  82
BRANCH  81  94
ATOM     94  C   ARG    10      56.155  38.662  39.995  1.00  0.00     0.251 C 
ATOM     95  N   LEU    11      56.497  37.462  39.519  1.00  0.00    -0.338 N 
ATOM     96  H   LEU    11      57.453  37.165  39.495  1.00 99.99     0.164 HD
ATOM     97  O   ARG    10      54.998  39.078  40.010  1.00  0.00    -0.271 OA
BRANCH  95  98
ATOM     98  CA  LEU    11      55.529  36.487  38.982  1.00  0.00     0.159 C 
BRANCH  98  99
ATOM     99  CB  LEU    11      54.221  36.534  39.789  1.00  0.00     0.032 C 
BRANCH  99 100
ATOM    100  CG  LEU    11      54.235  35.659  41.048  1.00  0.00     0.002 C 
ATOM    101  CD1 LEU    11      53.852  36.512  42.259  1.00  0.00     0.000 C 
ATOM    102  CD2 LEU    11      53.263  34.480  40.923  1.00  0.00     0.000 C 
ENDBRANCH  99 100
ENDBRANCH  98  99
BRANCH  98 103
ATOM    103  C   LEU    11      55.216  36.706  37.493  1.00  0.00     0.251 C 
ATOM    104  O   LEU    11      55.004  35.747  36.753  1.00  0.00    -0.271 OA
ATOM    105  N   PHE    12      55.166  37.974  37.081  1.00  0.00    -0.337 N 
ATOM    106  H   PHE    12      55.211  38.736  37.736  1.00 99.99     0.164 HD
BRANCH 105 107
ATOM    107  CA  PHE    12      54.929  38.369  35.680  1.00  0.00     0.164 C 
BRANCH 107 108
ATOM    108  CB  PHE    12      54.393  39.800  35.599  1.00  0.00     0.056 C 
BRANCH 108 109
ATOM    109  CG  PHE    12      52.864  39.976  35.700  1.00  0.00    -0.044 A 
ATOM    110  CD1 PHE    12      52.249  41.185  35.992  1.00  0.00     0.008 A 
ATOM    111  CE1 PHE    12      50.876  41.242  36.175  1.00  0.00     0.001 A 
ATOM    112  CZ  PHE    12      50.104  40.080  36.084  1.00  0.00     0.000 A 
ATOM    113  CE2 PHE    12      50.732  38.867  35.785  1.00  0.00     0.001 A 
ATOM    114  CD2 PHE    12      52.106  38.828  35.590  1.00  0.00     0.008 A 
ENDBRANCH 108 109
ENDBRANCH 107 108
BRANCH 107 115
ATOM    115  C   PHE    12      56.163  38.269  34.764  1.00  0.00     0.251 C 
ATOM    116  O   PHE    12      56.013  37.948  33.585  1.00  0.00    -0.271 OA
ATOM    117  N   GLY    13      57.296  38.818  35.232  1.00  0.00    -0.336 N 
ATOM    118  H   GLY    13      57.373  39.259  36.140  1.00 99.99     0.164 HD
BRANCH 117 119
ATOM    119  CA  GLY    13      58.546  38.856  34.447  1.00  0.00     0.189 C 
BRANCH 119 120
ATOM    120  C   GLY    13      59.174  40.259  34.367  1.00  0.00     0.253 C 
ATOM    121  N   LEU    14      58.766  41.126  35.294  1.00  0.00    -0.337 N 
ATOM    122  H   LEU    14      58.063  40.856  35.952  1.00 99.99     0.164 HD
ATOM    123  O   GLY    13      59.888  40.580  33.417  1.00  0.00    -0.270 OA
BRANCH 121 124
ATOM    124  CA  LEU    14      59.280  42.496  35.454  1.00  0.00     0.159 C 
BRANCH 124 125
ATOM    125  CB  LEU    14      58.261  43.351  36.222  1.00  0.00     0.032 C 
BRANCH 125 126
ATOM    126  CG  LEU    14      57.700  44.532  35.419  1.00  0.00     0.002 C 
ATOM    127  CD2 LEU    14      56.502  44.118  34.557  1.00  0.00     0.000 C 
ATOM    128  CD1 LEU    14      58.802  45.107  34.528  1.00  0.00     0.000 C 
ENDBRANCH 125 126
ENDBRANCH 124 125
BRANCH 124 129
ATOM    129  C   LEU    14      60.627  42.529  36.189  1.00  0.00     0.251 C 
ATOM    130  N   LYS    15      61.682  42.334  35.401  1.00  0.00    -0.338 N 
ATOM    131  H   LYS    15      61.580  42.215  34.415  1.00 99.99     0.164 HD
ATOM    132  O   LEU    14      60.700  42.736  37.399  1.00  0.00    -0.271 OA
BRANCH 130 133
ATOM    133  CA  LYS    15      63.070  42.283  35.886  1.00  0.00     0.159 C 
BRANCH 133 134
ATOM    134  CB  LYS    15      63.341  43.439  36.864  1.00  0.00     0.032 C 
BRANCH 134 135
ATOM    135  CG  LYS    15      63.589  44.758  36.125  1.00  0.00     0.004 C 
BRANCH 135 136
ATOM    136  CD  LYS    15      65.033  45.244  36.258  1.00  0.00     0.032 C 
BRANCH 136 137
ATOM    137  CE  LYS    15      65.835  44.795  35.036  1.00  0.00     0.206 C 
BRANCH 137 138
ATOM    138  NZ  LYS    15      67.026  45.631  34.829  1.00  0.00    -0.064 N 
ATOM    139  HZ3 LYS    15      67.458  45.817  35.710  1.00 99.99     0.275 HD
ATOM    140  HZ2 LYS    15      66.761  46.491  34.393  1.00 99.99     0.275 HD
ATOM    141  HZ1 LYS    15      67.669  45.143  34.238  1.00 99.99     0.275 HD
ENDBRANCH 137 138
ENDBRANCH 136 137
ENDBRANCH 135 136
ENDBRANCH 134 135
ENDBRANCH 133 134
BRANCH 133 142
ATOM    142  C   LYS    15      63.368  40.941  36.560  1.00  0.00     0.251 C 
ATOM    143  N   ASP    16      64.335  41.002  37.469  1.00  0.00    -0.337 N 
ATOM    144  H   ASP    16      64.833  41.865  37.567  1.00 99.99     0.164 HD
ATOM    145  O   LYS    15      62.684  39.939  36.347  1.00  0.00    -0.271 OA
BRANCH 143 146
ATOM    146  CA  ASP    16      64.851  39.898  38.312  1.00  0.00     0.170 C 
BRANCH 146 147
ATOM    147  CB  ASP    16      66.339  40.123  38.665  1.00  0.00     0.129 C 
BRANCH 147 148
ATOM    148  CG  ASP    16      67.113  40.977  37.651  1.00  0.00     0.188 C 
ATOM    149  OD1 ASP    16      67.396  40.428  36.565  1.00  0.00    -0.647 OA
ATOM    150  OD2 ASP    16      67.106  42.212  37.839  1.00  0.00    -0.647 OA
ENDBRANCH 147 148
ENDBRANCH 146 147
BRANCH 146 151
ATOM    151  C   ASP    16      64.058  39.586  39.596  1.00  0.00     0.251 C 
ATOM    152  O   ASP    16      64.463  39.992  40.685  1.00  0.00    -0.271 OA
ATOM    153  N   LYS    17      62.920  38.904  39.454  1.00  0.00    -0.338 N 
ATOM    154  H   LYS    17      62.513  38.759  38.553  1.00 99.99     0.164 HD
BRANCH 153 155
ATOM    155  CA  LYS    17      62.089  38.436  40.584  1.00  0.00     0.159 C 
BRANCH 155 156
ATOM    156  C   LYS    17      61.766  39.541  41.612  1.00  0.00     0.251 C 
ATOM    157  N   LYS    18      62.409  39.433  42.776  1.00  0.00    -0.338 N 
ATOM    158  H   LYS    18      62.921  38.596  42.956  1.00 99.99     0.164 HD
ATOM    159  O   LYS    17      60.890  40.387  41.413  1.00  0.00    -0.271 OA
BRANCH 157 160
ATOM    160  CA  LYS    18      62.326  40.368  43.926  1.00  0.00     0.159 C 
BRANCH 160 161
ATOM    161  CB  LYS    18      62.350  39.617  45.261  1.00  0.00     0.032 C 
BRANCH 161 162
ATOM    162  CG  LYS    18      61.349  38.469  45.341  1.00  0.00     0.004 C 
BRANCH 162 163
ATOM    163  CD  LYS    18      61.590  37.729  46.653  1.00  0.00     0.032 C 
BRANCH 163 164
ATOM    164  CE  LYS    18      62.386  38.581  47.635  1.00  0.00     0.206 C 
BRANCH 164 165
ATOM    165  NZ  LYS    18      63.218  37.702  48.469  1.00  0.00    -0.064 N 
ATOM    166  HZ2 LYS    18      63.475  38.183  49.306  1.00 99.99     0.275 HD
ATOM    167  HZ1 LYS    18      64.037  37.437  47.963  1.00 99.99     0.275 HD
ATOM    168  HZ3 LYS    18      62.691  36.885  48.704  1.00 99.99     0.275 HD
ENDBRANCH 164 165
ENDBRANCH 163 164
ENDBRANCH 162 163
ENDBRANCH 161 162
ENDBRANCH 160 161
BRANCH 160 169
ATOM    169  C   LYS    18      63.469  41.394  43.991  1.00  0.00     0.251 C 
ATOM    170  O   LYS    18      63.385  42.480  43.417  1.00  0.00    -0.271 OA
ATOM    171  N   HIS    19      64.395  41.133  44.913  1.00  0.00    -0.336 N 
ATOM    172  H   HIS    19      64.304  40.334  45.505  1.00 99.99     0.164 HD
BRANCH 171 173
ATOM    173  CA  HIS    19      65.609  41.918  45.178  1.00  0.00     0.174 C 
BRANCH 173 174
ATOM    174  CB  HIS    19      65.815  41.826  46.703  1.00  0.00     0.078 C 
BRANCH 174 175
ATOM    175  CG  HIS    19      67.256  42.015  47.195  1.00  0.00     0.057 A 
ATOM    176  CD2 HIS    19      67.993  41.084  47.793  1.00  0.00     0.113 A 
ATOM    177  NE2 HIS    19      69.267  41.446  47.726  1.00  0.00    -0.223 NA
ATOM    178  CE1 HIS    19      69.318  42.630  47.128  1.00  0.00     0.175 A 
ATOM    179  ND1 HIS    19      68.076  42.995  46.824  1.00  0.00    -0.338 N 
ATOM    180  HD1 HIS    19      67.804  43.892  46.471  1.00 99.99     0.167 HD
ENDBRANCH 174 175
ENDBRANCH 173 174
BRANCH 173 181
ATOM    181  C   HIS    19      66.785  41.283  44.406  1.00  0.00     0.207 C 
ATOM    182  OXT HIS    19      67.538  42.086  43.814  1.00 99.99    -0.646 OA
ATOM    183  O   HIS    19      66.895  40.037  44.416  1.00 99.99    -0.646 OA
ENDBRANCH 173 181
ENDBRANCH 171 173
ENDBRANCH 160 169
ENDBRANCH 157 160
ENDBRANCH 155 156
BRANCH 155 184
ATOM    184  CB  LYS    17      62.793  37.245  41.254  1.00  0.00     0.032 C 
BRANCH 184 185
ATOM    185  CG  LYS    17      61.818  36.285  41.939  1.00  0.00     0.004 C 
BRANCH 185 186
ATOM    186  CD  LYS    17      62.084  34.848  41.494  1.00  0.00     0.032 C 
BRANCH 186 187
ATOM    187  CE  LYS    17      61.891  34.712  39.984  1.00  0.00     0.206 C 
BRANCH 187 188
ATOM    188  NZ  LYS    17      60.536  35.128  39.597  1.00  0.00    -0.064 N 
ATOM    189  HZ1 LYS    17      59.893  34.389  39.794  1.00 99.99     0.275 HD
ATOM    190  HZ3 LYS    17      60.522  35.332  38.618  1.00 99.99     0.275 HD
ATOM    191  HZ2 LYS    17      60.278  35.946  40.111  1.00 99.99     0.275 HD
ENDBRANCH 187 188
ENDBRANCH 186 187
ENDBRANCH 185 186
ENDBRANCH 184 185
ENDBRANCH 155 184
ENDBRANCH 153 155
ENDBRANCH 146 151
ENDBRANCH 143 146
ENDBRANCH 133 142
ENDBRANCH 130 133
ENDBRANCH 124 129
ENDBRANCH 121 124
ENDBRANCH 119 120
ENDBRANCH 117 119
ENDBRANCH 107 115
ENDBRANCH 105 107
ENDBRANCH  98 103
ENDBRANCH  95  98
ENDBRANCH  81  94
ENDBRANCH  78  81
ENDBRANCH  76  77
BRANCH  76 192
ATOM    192  CB  LEU     9      57.887  36.653  43.906  1.00  0.00     0.032 C 
BRANCH 192 193
ATOM    193  CG  LEU     9      58.404  35.794  45.067  1.00  0.00     0.002 C 
ATOM    194  CD2 LEU     9      59.667  35.014  44.682  1.00  0.00     0.000 C 
ATOM    195  CD1 LEU     9      57.314  34.813  45.500  1.00  0.00     0.000 C 
ENDBRANCH 192 193
ENDBRANCH  76 192
ENDBRANCH  73  76
ENDBRANCH  60  72
ENDBRANCH  57  60
ENDBRANCH  55  56
ENDBRANCH  53  55
ENDBRANCH  50  51
ENDBRANCH  47  50
ENDBRANCH  42  46
ENDBRANCH  39  42
ENDBRANCH  29  38
ENDBRANCH  26  29
ENDBRANCH  20  25
ENDBRANCH  17  20
ENDBRANCH  14  16
ENDBRANCH  11  14
ENDBRANCH   5  10
ENDBRANCH   1   5
TORSDOF 82
ENDMDL
