MODEL 1
REMARK VINA RESULT:      -4.0      0.000      0.000
REMARK WARNING: 32 MAX_TORS EXCEEDED!!!
REMARK  80 active torsions:
REMARK  status: ('A' for Active; 'I' for Inactive)
REMARK    1  A    between atoms: N_1  and  CA_2 
REMARK    2  A    between atoms: CA_2  and  C_3 
REMARK    3  A    between atoms: CA_2  and  CB_5 
REMARK       I    between atoms: C_3  and  N_15 
REMARK    4  A    between atoms: CB_5  and  CG_6 
REMARK    5  A    between atoms: N_15  and  CA_16 
REMARK    6  A    between atoms: CA_16  and  C_17 
REMARK    7  A    between atoms: CA_16  and  CB_19 
REMARK       I    between atoms: C_17  and  N_24 
REMARK    8  A    between atoms: CB_19  and  CG_20 
REMARK    9  A    between atoms: CA_25  and  C_26 
REMARK       I    between atoms: C_26  and  N_31 
REMARK   10  A    between atoms: N_31  and  CA_32 
REMARK   11  A    between atoms: CA_32  and  C_33 
REMARK   12  A    between atoms: CA_32  and  CB_35 
REMARK       I    between atoms: C_33  and  N_44 
REMARK   13  A    between atoms: CB_35  and  CG_36 
REMARK   14  A    between atoms: CG_36  and  CD_37 
REMARK   15  A    between atoms: CD_37  and  CE_38 
REMARK   16  A    between atoms: CE_38  and  NZ_39 
REMARK   17  A    between atoms: N_44  and  CA_45 
REMARK   18  A    between atoms: CA_45  and  C_46 
REMARK   19  A    between atoms: CA_45  and  CB_48 
REMARK       I    between atoms: C_46  and  N_53 
REMARK   20  A    between atoms: CB_48  and  CG_49 
REMARK   21  A    between atoms: N_53  and  CA_54 
REMARK   22  A    between atoms: CA_54  and  CB_57 
REMARK   23  A    between atoms: CA_54  and  C_55 
REMARK       I    between atoms: C_55  and  N_65 
REMARK   24  A    between atoms: CB_57  and  CG_58 
REMARK   25  A    between atoms: N_65  and  CA_66 
REMARK   26  A    between atoms: CA_66  and  C_67 
REMARK       I    between atoms: C_67  and  N_71 
REMARK   27  A    between atoms: N_71  and  CA_72 
REMARK   28  A    between atoms: CA_72  and  C_73 
REMARK   29  A    between atoms: CA_72  and  CB_75 
REMARK       I    between atoms: C_73  and  N_84 
REMARK   30  A    between atoms: CB_75  and  CG_76 
REMARK   31  A    between atoms: CG_76  and  CD_77 
REMARK   32  A    between atoms: CD_77  and  CE_78 
REMARK   33  A    between atoms: CE_78  and  NZ_79 
REMARK   34  A    between atoms: N_84  and  CA_85 
REMARK   35  A    between atoms: CA_85  and  CB_88 
REMARK   36  A    between atoms: CA_85  and  C_86 
REMARK       I    between atoms: C_86  and  N_93 
REMARK   37  A    between atoms: CB_88  and  CG1_89 
REMARK   38  A    between atoms: N_93  and  CA_94 
REMARK   39  A    between atoms: CA_94  and  CB_97 
REMARK   40  A    between atoms: CA_94  and  C_95 
REMARK       I    between atoms: C_95  and  N_102 
REMARK   41  A    between atoms: CB_97  and  OG1_98 
REMARK   42  A    between atoms: N_102  and  CA_103 
REMARK   43  A    between atoms: CA_103  and  CB_106 
REMARK   44  A    between atoms: CA_103  and  C_104 
REMARK       I    between atoms: C_104  and  N_115 
REMARK   45  A    between atoms: CB_106  and  CG_107 
REMARK   46  A    between atoms: CG_107  and  CD_108 
REMARK   47  A    between atoms: CD_108  and  CE_109 
REMARK   48  A    between atoms: CE_109  and  NZ_110 
REMARK   49  A    between atoms: N_115  and  CA_116 
REMARK   50  A    between atoms: CA_116  and  C_117 
REMARK   51  A    between atoms: CA_116  and  CB_119 
REMARK       I    between atoms: C_117  and  N_128 
REMARK   52  A    between atoms: CB_119  and  CG_120 
REMARK   53  A    between atoms: CG_120  and  CD_121 
REMARK   54  A    between atoms: CD_121  and  CE_122 
REMARK   55  A    between atoms: CE_122  and  NZ_123 
REMARK   56  A    between atoms: N_128  and  CA_129 
REMARK   57  A    between atoms: CA_129  and  C_130 
REMARK   58  A    between atoms: CA_129  and  CB_132 
REMARK       I    between atoms: C_130  and  N_139 
REMARK   59  A    between atoms: CB_132  and  CG_133 
REMARK       I    between atoms: CG_133  and  ND2_135 
REMARK   60  A    between atoms: N_139  and  CA_140 
REMARK   61  A    between atoms: CA_140  and  C_141 
REMARK   62  A    between atoms: CA_140  and  CB_143 
REMARK       I    between atoms: C_141  and  N_148 
REMARK   63  A    between atoms: CB_143  and  CG_144 
REMARK   64  A    between atoms: CG_144  and  SD_145 
REMARK   65  A    between atoms: N_148  and  CA_149 
REMARK   66  A    between atoms: CA_149  and  C_150 
REMARK       I    between atoms: C_150  and  N_154 
REMARK   67  A    between atoms: N_154  and  CA_155 
REMARK   68  A    between atoms: CA_155  and  C_156 
REMARK   69  A    between atoms: CA_155  and  CB_158 
REMARK       I    between atoms: C_156  and  N_166 
REMARK   70  A    between atoms: CB_158  and  CG_159 
REMARK   71  A    between atoms: N_166  and  CA_167 
REMARK   72  A    between atoms: CA_167  and  CB_170 
REMARK   73  A    between atoms: CA_167  and  C_168 
REMARK       I    between atoms: C_168  and  N_175 
REMARK   74  A    between atoms: CB_170  and  CG1_171 
REMARK   75  A    between atoms: N_175  and  CA_176 
REMARK   76  A    between atoms: CA_176  and  CB_179 
REMARK   77  A    between atoms: CA_176  and  C_177 
REMARK   78  A    between atoms: CB_179  and  CG_180 
REMARK   79  A    between atoms: CG_180  and  CD_181 
REMARK   80  A    between atoms: CD_181  and  NE_182 
REMARK       I    between atoms: NE_182  and  CZ_183 
REMARK       I    between atoms: CZ_183  and  NH1_184 
ROOT
ATOM      1  N   PHE     1      58.974  44.503  40.059  1.00  0.00    -0.057 N 
ATOM      2  H1  PHE     1      59.463  45.274  39.664  1.00 99.99     0.276 HD
ATOM      3  H2  PHE     1      58.004  44.737  40.131  1.00 99.99     0.276 HD
ATOM      4  H3  PHE     1      59.250  44.362  41.010  1.00 99.99     0.276 HD
ENDROOT
BRANCH   1   5
ATOM      5  CA  PHE     1      59.171  43.262  39.243  1.00  0.00     0.259 C 
BRANCH   5   6
ATOM      6  C   PHE     1      60.027  42.083  39.793  1.00  0.00     0.259 C 
ATOM      7  N   LEU     2      61.358  42.158  39.693  1.00  0.00    -0.338 N 
ATOM      8  H   LEU     2      61.835  42.999  39.444  1.00 99.99     0.164 HD
ATOM      9  O   PHE     1      59.504  41.227  40.507  1.00  0.00    -0.271 OA
BRANCH   7  10
ATOM     10  CA  LEU     2      62.233  41.008  40.027  1.00  0.00     0.160 C 
BRANCH  10  11
ATOM     11  C   LEU     2      62.671  40.904  41.513  1.00  0.00     0.254 C 
ATOM     12  N   PRO     3      62.845  39.703  42.109  1.00  0.00    -0.312 N 
ATOM     13  CD  PRO     3      62.332  38.394  41.645  1.00  0.00     0.105 C 
ATOM     14  CA  PRO     3      63.374  39.561  43.479  1.00  0.00     0.163 C 
ATOM     15  CG  PRO     3      62.260  37.538  42.910  1.00  0.00     0.027 C 
ATOM     16  CB  PRO     3      63.427  38.056  43.744  1.00  0.00     0.034 C 
ATOM     17  O   LEU     2      63.030  41.947  42.053  1.00  0.00    -0.270 OA
BRANCH  14  18
ATOM     18  C   PRO     3      64.759  40.203  43.665  1.00  0.00     0.251 C 
ATOM     19  O   PRO     3      64.899  41.047  44.546  1.00  0.00    -0.271 OA
ATOM     20  N   LYS     4      65.691  39.953  42.737  1.00  0.00    -0.338 N 
ATOM     21  H   LYS     4      65.532  39.305  41.993  1.00 99.99     0.164 HD
BRANCH  20  22
ATOM     22  CA  LYS     4      67.045  40.545  42.754  1.00  0.00     0.159 C 
BRANCH  22  23
ATOM     23  C   LYS     4      67.474  40.996  44.164  1.00  0.00     0.251 C 
ATOM     24  N   LEU     5      67.885  40.044  45.007  1.00  0.00    -0.338 N 
ATOM     25  H   LEU     5      67.802  39.067  44.783  1.00 99.99     0.164 HD
ATOM     26  O   LYS     4      67.550  42.197  44.424  1.00  0.00    -0.271 OA
BRANCH  24  27
ATOM     27  CA  LEU     5      68.429  40.342  46.344  1.00  0.00     0.159 C 
BRANCH  27  28
ATOM     28  C   LEU     5      67.375  40.291  47.454  1.00  0.00     0.251 C 
ATOM     29  N   PHE     6      66.095  40.276  47.067  1.00  0.00    -0.337 N 
ATOM     30  H   PHE     6      65.832  40.387  46.103  1.00 99.99     0.164 HD
ATOM     31  O   LEU     5      67.731  40.066  48.611  1.00  0.00    -0.271 OA
BRANCH  29  32
ATOM     32  CA  PHE     6      64.970  40.141  48.011  1.00  0.00     0.164 C 
BRANCH  32  33
ATOM     33  CB  PHE     6      64.066  41.376  47.926  1.00  0.00     0.056 C 
BRANCH  33  34
ATOM     34  CG  PHE     6      64.873  42.690  47.921  1.00  0.00    -0.044 A 
ATOM     35  CD1 PHE     6      65.674  43.013  48.998  1.00  0.00     0.008 A 
ATOM     36  CE1 PHE     6      66.403  44.194  48.999  1.00  0.00     0.001 A 
ATOM     37  CZ  PHE     6      66.331  45.058  47.902  1.00  0.00     0.000 A 
ATOM     38  CE2 PHE     6      65.524  44.722  46.813  1.00  0.00     0.001 A 
ATOM     39  CD2 PHE     6      64.794  43.537  46.831  1.00  0.00     0.008 A 
ENDBRANCH  33  34
ENDBRANCH  32  33
BRANCH  32  40
ATOM     40  C   PHE     6      64.189  38.838  47.766  1.00  0.00     0.251 C 
ATOM     41  O   PHE     6      64.815  37.813  47.511  1.00  0.00    -0.271 OA
ATOM     42  N   ALA     7      62.877  38.955  47.553  1.00  0.00    -0.338 N 
ATOM     43  H   ALA     7      62.405  39.843  47.647  1.00 99.99     0.164 HD
BRANCH  42  44
ATOM     44  CA  ALA     7      61.996  37.824  47.221  1.00  0.00     0.159 C 
ATOM     45  CB  ALA     7      61.465  37.167  48.500  1.00  0.00     0.034 C 
BRANCH  44  46
ATOM     46  C   ALA     7      60.823  38.213  46.301  1.00  0.00     0.251 C 
ATOM     47  O   ALA     7      60.793  39.350  45.834  1.00  0.00    -0.271 OA
ATOM     48  N   LYS     8      59.802  37.357  46.192  1.00  0.00    -0.338 N 
ATOM     49  H   LYS     8      59.840  36.425  46.574  1.00 99.99     0.164 HD
BRANCH  48  50
ATOM     50  CA  LYS     8      58.581  37.662  45.422  1.00  0.00     0.159 C 
BRANCH  50  51
ATOM     51  C   LYS     8      57.463  38.247  46.309  1.00  0.00     0.251 C 
ATOM     52  O   LYS     8      57.741  38.673  47.427  1.00  0.00    -0.271 OA
ATOM     53  N   ILE     9      56.208  38.124  45.869  1.00  0.00    -0.338 N 
ATOM     54  H   ILE     9      56.005  37.690  44.982  1.00 99.99     0.164 HD
BRANCH  53  55
ATOM     55  CA  ILE     9      55.029  38.616  46.611  1.00  0.00     0.159 C 
BRANCH  55  56
ATOM     56  CB  ILE     9      54.667  37.661  47.773  1.00  0.00     0.029 C 
ATOM     57  CG2 ILE     9      53.280  37.982  48.355  1.00  0.00     0.002 C 
BRANCH  56  58
ATOM     58  CG1 ILE     9      54.706  36.202  47.282  1.00  0.00     0.002 C 
ATOM     59  CD  ILE     9      53.553  35.816  46.345  1.00  0.00     0.000 C 
ENDBRANCH  56  58
ENDBRANCH  55  56
BRANCH  55  60
ATOM     60  C   ILE     9      55.234  40.079  47.060  1.00  0.00     0.251 C 
ATOM     61  N   THR    10      55.620  40.275  48.321  1.00  0.00    -0.336 N 
ATOM     62  H   THR    10      55.716  39.514  48.978  1.00 99.99     0.164 HD
ATOM     63  O   ILE     9      55.211  40.978  46.223  1.00  0.00    -0.271 OA
BRANCH  61  64
ATOM     64  CA  THR    10      55.866  41.608  48.903  1.00  0.00     0.186 C 
BRANCH  64  65
ATOM     65  CB  THR    10      55.301  41.718  50.331  1.00  0.00     0.140 C 
ATOM     66  CG2 THR    10      55.043  43.173  50.743  1.00  0.00     0.034 C 
BRANCH  65  67
ATOM     67  OG1 THR    10      54.059  41.007  50.388  1.00  0.00    -0.382 OA
ATOM     68  HG1 THR    10      53.442  41.319  49.662  1.00 99.99     0.210 HD
ENDBRANCH  65  67
ENDBRANCH  64  65
BRANCH  64  69
ATOM     69  C   THR    10      57.363  41.972  48.850  1.00  0.00     0.253 C 
ATOM     70  O   THR    10      57.816  42.667  49.755  1.00  0.00    -0.270 OA
ATOM     71  N   LYS    11      58.044  41.696  47.734  1.00  0.00    -0.337 N 
ATOM     72  H   LYS    11      57.649  41.180  46.962  1.00 99.99     0.164 HD
BRANCH  71  73
ATOM     73  CA  LYS    11      59.452  42.102  47.553  1.00  0.00     0.159 C 
BRANCH  73  74
ATOM     74  CB  LYS    11      59.608  43.598  47.258  1.00  0.00     0.032 C 
BRANCH  74  75
ATOM     75  CG  LYS    11      59.255  43.927  45.806  1.00  0.00     0.004 C 
BRANCH  75  76
ATOM     76  CD  LYS    11      60.112  43.110  44.838  1.00  0.00     0.032 C 
BRANCH  76  77
ATOM     77  CE  LYS    11      59.660  43.331  43.391  1.00  0.00     0.206 C 
BRANCH  77  78
ATOM     78  NZ  LYS    11      58.417  42.607  43.104  1.00  0.00    -0.064 N 
ATOM     79  HZ3 LYS    11      58.496  41.664  43.433  1.00 99.99     0.275 HD
ATOM     80  HZ2 LYS    11      58.249  42.600  42.118  1.00 99.99     0.275 HD
ATOM     81  HZ1 LYS    11      57.653  43.056  43.570  1.00 99.99     0.275 HD
ENDBRANCH  77  78
ENDBRANCH  76  77
ENDBRANCH  75  76
ENDBRANCH  74  75
ENDBRANCH  73  74
BRANCH  73  82
ATOM     82  C   LYS    11      60.365  41.707  48.728  1.00  0.00     0.251 C 
ATOM     83  O   LYS    11      60.559  40.515  48.955  1.00  0.00    -0.271 OA
ATOM     84  N   LYS    12      60.759  42.673  49.560  1.00  0.00    -0.338 N 
ATOM     85  H   LYS    12      60.552  43.649  49.394  1.00 99.99     0.164 HD
BRANCH  84  86
ATOM     86  CA  LYS    12      61.571  42.409  50.760  1.00  0.00     0.159 C 
BRANCH  86  87
ATOM     87  C   LYS    12      60.708  42.421  52.037  1.00  0.00     0.251 C 
ATOM     88  O   LYS    12      60.684  43.428  52.743  1.00  0.00    -0.271 OA
ATOM     89  N   ASN    13      60.184  41.257  52.419  1.00  0.00    -0.337 N 
ATOM     90  H   ASN    13      60.262  40.435  51.837  1.00 99.99     0.164 HD
BRANCH  89  91
ATOM     91  CA  ASN    13      59.351  41.093  53.623  1.00  0.00     0.169 C 
BRANCH  91  92
ATOM     92  C   ASN    13      60.103  40.335  54.740  1.00  0.00     0.251 C 
ATOM     93  N   MET    14      59.460  40.222  55.904  1.00  0.00    -0.337 N 
ATOM     94  H   MET    14      58.575  40.683  56.048  1.00 99.99     0.164 HD
ATOM     95  O   ASN    13      61.107  39.680  54.472  1.00  0.00    -0.271 OA
BRANCH  93  96
ATOM     96  CA  MET    14      59.931  39.477  57.090  1.00  0.00     0.160 C 
BRANCH  96  97
ATOM     97  C   MET    14      61.455  39.545  57.349  1.00  0.00     0.251 C 
ATOM     98  O   MET    14      62.092  38.510  57.540  1.00  0.00    -0.271 OA
ATOM     99  N   ALA    15      62.031  40.748  57.302  1.00  0.00    -0.338 N 
ATOM    100  H   ALA    15      61.586  41.515  56.828  1.00 99.99     0.164 HD
BRANCH  99 101
ATOM    101  CA  ALA    15      63.429  41.007  57.699  1.00  0.00     0.159 C 
ATOM    102  CB  ALA    15      63.577  40.816  59.212  1.00  0.00     0.034 C 
BRANCH 101 103
ATOM    103  C   ALA    15      64.463  40.133  56.959  1.00  0.00     0.251 C 
ATOM    104  O   ALA    15      65.304  39.495  57.589  1.00  0.00    -0.271 OA
ATOM    105  N   HIS    16      64.329  40.048  55.635  1.00  0.00    -0.337 N 
ATOM    106  H   HIS    16      63.492  40.386  55.190  1.00 99.99     0.164 HD
BRANCH 105 107
ATOM    107  CA  HIS    16      65.240  39.328  54.725  1.00  0.00     0.165 C 
BRANCH 107 108
ATOM    108  C   HIS    16      66.494  40.140  54.326  1.00  0.00     0.251 C 
ATOM    109  O   HIS    16      66.833  40.215  53.146  1.00  0.00    -0.271 OA
ATOM    110  N   ILE    17      67.132  40.787  55.302  1.00  0.00    -0.338 N 
ATOM    111  H   ILE    17      66.733  40.832  56.221  1.00 99.99     0.164 HD
BRANCH 110 112
ATOM    112  CA  ILE    17      68.310  41.664  55.092  1.00  0.00     0.159 C 
BRANCH 112 113
ATOM    113  CB  ILE    17      68.356  42.710  56.240  1.00  0.00     0.029 C 
ATOM    114  CG2 ILE    17      68.539  44.160  55.749  1.00  0.00     0.002 C 
BRANCH 113 115
ATOM    115  CG1 ILE    17      67.079  42.599  57.093  1.00  0.00     0.002 C 
ATOM    116  CD  ILE    17      67.201  43.178  58.512  1.00  0.00     0.000 C 
ENDBRANCH 113 115
ENDBRANCH 112 113
BRANCH 112 117
ATOM    117  C   ILE    17      69.639  40.898  54.896  1.00  0.00     0.251 C 
ATOM    118  O   ILE    17      70.694  41.343  55.347  1.00  0.00    -0.271 OA
ATOM    119  N   ARG    18      69.606  39.796  54.149  1.00  0.00    -0.336 N 
ATOM    120  H   ARG    18      68.870  39.632  53.495  1.00 99.99     0.164 HD
BRANCH 119 121
ATOM    121  CA  ARG    18      70.744  38.855  54.052  1.00  0.00     0.168 C 
BRANCH 121 122
ATOM    122  CB  ARG    18      70.281  37.556  54.713  1.00  0.00     0.035 C 
BRANCH 122 123
ATOM    123  CG  ARG    18      68.759  37.408  54.788  1.00  0.00     0.027 C 
BRANCH 123 124
ATOM    124  CD  ARG    18      68.257  36.513  53.653  1.00  0.00     0.116 C 
BRANCH 124 125
ATOM    125  NE  ARG    18      67.639  37.333  52.604  1.00  0.00    -0.212 N 
ATOM    126  CZ  ARG    18      67.892  37.260  51.296  1.00  0.00     0.666 C 
ATOM    127  NH1 ARG    18      68.835  36.475  50.802  1.00  0.00    -0.235 N 
ATOM    128  NH2 ARG    18      67.067  37.843  50.443  1.00  0.00    -0.235 N 
ATOM    129 2HH1 ARG    18      69.393  35.939  51.442  1.00 99.99     0.174 HD
ATOM    130 1HH1 ARG    18      69.004  36.435  49.824  1.00 99.99     0.174 HD
ATOM    131 2HH2 ARG    18      66.281  38.354  50.794  1.00 99.99     0.174 HD
ATOM    132 1HH2 ARG    18      67.241  37.792  49.466  1.00 99.99     0.174 HD
ATOM    133  HE  ARG    18      67.049  38.070  52.934  1.00 99.99     0.178 HD
ENDBRANCH 124 125
ENDBRANCH 123 124
ENDBRANCH 122 123
ENDBRANCH 121 122
BRANCH 121 134
ATOM    134  C   ARG    18      71.177  38.594  52.598  1.00  0.00     0.206 C 
ATOM    135  O   ARG    18      71.436  39.585  51.876  1.00 99.99    -0.646 OA
ATOM    136  OXT ARG    18      71.357  37.399  52.287  1.00 99.99    -0.646 OA
ENDBRANCH 121 134
ENDBRANCH 119 121
ENDBRANCH 112 117
ENDBRANCH 110 112
ENDBRANCH 107 108
BRANCH 107 137
ATOM    137  CB  HIS    16      64.417  38.913  53.492  1.00  0.00     0.077 C 
BRANCH 137 138
ATOM    138  CG  HIS    16      64.023  37.429  53.460  1.00  0.00     0.057 A 
ATOM    139  CD2 HIS    16      63.710  36.681  54.513  1.00  0.00     0.113 A 
ATOM    140  NE2 HIS    16      63.185  35.539  54.077  1.00  0.00    -0.223 NA
ATOM    141  CE1 HIS    16      63.197  35.574  52.748  1.00  0.00     0.175 A 
ATOM    142  ND1 HIS    16      63.740  36.726  52.366  1.00  0.00    -0.338 N 
ATOM    143  HD1 HIS    16      64.004  36.961  51.430  1.00 99.99     0.167 HD
ENDBRANCH 137 138
ENDBRANCH 107 137
ENDBRANCH 105 107
ENDBRANCH 101 103
ENDBRANCH  99 101
ENDBRANCH  96  97
BRANCH  96 144
ATOM    144  CB  MET    14      59.380  38.050  56.937  1.00  0.00     0.043 C 
BRANCH 144 145
ATOM    145  CG  MET    14      57.918  37.842  56.517  1.00  0.00     0.060 C 
BRANCH 145 146
ATOM    146  SD  MET    14      56.629  38.481  57.651  1.00  0.00    -0.139 SA
ATOM    147  CE  MET    14      55.424  39.160  56.530  1.00  0.00     0.069 C 
ENDBRANCH 145 146
ENDBRANCH 144 145
ENDBRANCH  96 144
ENDBRANCH  93  96
ENDBRANCH  91  92
BRANCH  91 148
ATOM    148  CB  ASN    13      58.032  40.385  53.265  1.00  0.00     0.119 C 
BRANCH 148 149
ATOM    149  CG  ASN    13      58.144  39.263  52.220  1.00  0.00     0.230 C 
ATOM    150  ND2 ASN    13      58.212  38.039  52.702  1.00  0.00    -0.369 N 
ATOM    151 2HD2 ASN    13      58.208  37.876  53.682  1.00 99.99     0.159 HD
ATOM    152 1HD2 ASN    13      58.285  37.306  52.034  1.00 99.99     0.159 HD
ATOM    153  OD1 ASN    13      58.223  39.439  51.014  1.00  0.00    -0.273 OA
ENDBRANCH 148 149
ENDBRANCH  91 148
ENDBRANCH  89  91
ENDBRANCH  86  87
BRANCH  86 154
ATOM    154  CB  LYS    12      62.735  43.408  50.879  1.00  0.00     0.032 C 
BRANCH 154 155
ATOM    155  CG  LYS    12      62.511  44.615  49.962  1.00  0.00     0.004 C 
BRANCH 155 156
ATOM    156  CD  LYS    12      63.278  45.861  50.404  1.00  0.00     0.032 C 
BRANCH 156 157
ATOM    157  CE  LYS    12      63.054  46.970  49.373  1.00  0.00     0.206 C 
BRANCH 157 158
ATOM    158  NZ  LYS    12      64.308  47.647  49.014  1.00  0.00    -0.064 N 
ATOM    159  HZ3 LYS    12      65.045  46.974  48.948  1.00 99.99     0.275 HD
ATOM    160  HZ2 LYS    12      64.532  48.322  49.717  1.00 99.99     0.275 HD
ATOM    161  HZ1 LYS    12      64.194  48.105  48.132  1.00 99.99     0.275 HD
ENDBRANCH 157 158
ENDBRANCH 156 157
ENDBRANCH 155 156
ENDBRANCH 154 155
ENDBRANCH  86 154
ENDBRANCH  84  86
ENDBRANCH  73  82
ENDBRANCH  71  73
ENDBRANCH  64  69
ENDBRANCH  61  64
ENDBRANCH  55  60
ENDBRANCH  53  55
ENDBRANCH  50  51
BRANCH  50 162
ATOM    162  CB  LYS     8      58.092  36.423  44.655  1.00  0.00     0.032 C 
BRANCH 162 163
ATOM    163  CG  LYS     8      58.306  36.567  43.143  1.00  0.00     0.004 C 
BRANCH 163 164
ATOM    164  CD  LYS     8      58.220  38.017  42.664  1.00  0.00     0.032 C 
BRANCH 164 165
ATOM    165  CE  LYS     8      57.777  38.059  41.197  1.00  0.00     0.206 C 
BRANCH 165 166
ATOM    166  NZ  LYS     8      58.903  38.266  40.278  1.00  0.00    -0.064 N 
ATOM    167  HZ3 LYS     8      58.573  38.273  39.333  1.00 99.99     0.275 HD
ATOM    168  HZ1 LYS     8      59.339  39.144  40.481  1.00 99.99     0.275 HD
ATOM    169  HZ2 LYS     8      59.574  37.532  40.393  1.00 99.99     0.275 HD
ENDBRANCH 165 166
ENDBRANCH 164 165
ENDBRANCH 163 164
ENDBRANCH 162 163
ENDBRANCH  50 162
ENDBRANCH  48  50
ENDBRANCH  44  46
ENDBRANCH  42  44
ENDBRANCH  32  40
ENDBRANCH  29  32
ENDBRANCH  27  28
BRANCH  27 170
ATOM    170  CB  LEU     5      69.185  41.679  46.361  1.00  0.00     0.032 C 
BRANCH 170 171
ATOM    171  CG  LEU     5      70.630  41.534  46.853  1.00  0.00     0.002 C 
ATOM    172  CD2 LEU     5      71.559  42.559  46.190  1.00  0.00     0.000 C 
ATOM    173  CD1 LEU     5      71.132  40.121  46.550  1.00  0.00     0.000 C 
ENDBRANCH 170 171
ENDBRANCH  27 170
ENDBRANCH  24  27
ENDBRANCH  22  23
BRANCH  22 174
ATOM    174  CB  LYS     4      67.126  41.705  41.746  1.00  0.00     0.032 C 
BRANCH 174 175
ATOM    175  CG  LYS     4      68.539  41.911  41.183  1.00  0.00     0.004 C 
BRANCH 175 176
ATOM    176  CD  LYS     4      68.604  41.719  39.663  1.00  0.00     0.032 C 
BRANCH 176 177
ATOM    177  CE  LYS     4      68.946  43.040  38.964  1.00  0.00     0.206 C 
BRANCH 177 178
ATOM    178  NZ  LYS     4      69.332  44.101  39.912  1.00  0.00    -0.064 N 
ATOM    179  HZ1 LYS     4      70.330  44.124  39.992  1.00 99.99     0.275 HD
ATOM    180  HZ2 LYS     4      69.012  44.986  39.580  1.00 99.99     0.275 HD
ATOM    181  HZ3 LYS     4      68.938  43.914  40.811  1.00 99.99     0.275 HD
ENDBRANCH 177 178
ENDBRANCH 176 177
ENDBRANCH 175 176
ENDBRANCH 174 175
ENDBRANCH  22 174
ENDBRANCH  20  22
ENDBRANCH  14  18
ENDBRANCH  10  11
BRANCH  10 182
ATOM    182  CB  LEU     2      63.401  40.900  39.031  1.00  0.00     0.032 C 
BRANCH 182 183
ATOM    183  CG  LEU     2      63.910  39.470  38.784  1.00  0.00     0.002 C 
ATOM    184  CD2 LEU     2      65.405  39.391  39.101  1.00  0.00     0.000 C 
ATOM    185  CD1 LEU     2      63.645  39.001  37.349  1.00  0.00     0.000 C 
ENDBRANCH 182 183
ENDBRANCH  10 182
ENDBRANCH   7  10
ENDBRANCH   5   6
BRANCH   5 186
ATOM    186  CB  PHE     1      59.727  43.611  37.860  1.00  0.00     0.064 C 
BRANCH 186 187
ATOM    187  CG  PHE     1      58.758  43.288  36.718  1.00  0.00    -0.044 A 
ATOM    188  CD1 PHE     1      58.409  41.973  36.480  1.00  0.00     0.008 A 
ATOM    189  CE1 PHE     1      57.573  41.660  35.426  1.00  0.00     0.001 A 
ATOM    190  CZ  PHE     1      57.086  42.663  34.597  1.00  0.00     0.000 A 
ATOM    191  CE2 PHE     1      57.439  43.996  34.833  1.00  0.00     0.001 A 
ATOM    192  CD2 PHE     1      58.276  44.305  35.907  1.00  0.00     0.008 A 
ENDBRANCH 186 187
ENDBRANCH   5 186
ENDBRANCH   1   5
TORSDOF 80
ENDMDL
MODEL 2
REMARK VINA RESULT:      -3.9      1.750      3.249
REMARK WARNING: 32 MAX_TORS EXCEEDED!!!
REMARK  80 active torsions:
REMARK  status: ('A' for Active; 'I' for Inactive)
REMARK    1  A    between atoms: N_1  and  CA_2 
REMARK    2  A    between atoms: CA_2  and  C_3 
REMARK    3  A    between atoms: CA_2  and  CB_5 
REMARK       I    between atoms: C_3  and  N_15 
REMARK    4  A    between atoms: CB_5  and  CG_6 
REMARK    5  A    between atoms: N_15  and  CA_16 
REMARK    6  A    between atoms: CA_16  and  C_17 
REMARK    7  A    between atoms: CA_16  and  CB_19 
REMARK       I    between atoms: C_17  and  N_24 
REMARK    8  A    between atoms: CB_19  and  CG_20 
REMARK    9  A    between atoms: CA_25  and  C_26 
REMARK       I    between atoms: C_26  and  N_31 
REMARK   10  A    between atoms: N_31  and  CA_32 
REMARK   11  A    between atoms: CA_32  and  C_33 
REMARK   12  A    between atoms: CA_32  and  CB_35 
REMARK       I    between atoms: C_33  and  N_44 
REMARK   13  A    between atoms: CB_35  and  CG_36 
REMARK   14  A    between atoms: CG_36  and  CD_37 
REMARK   15  A    between atoms: CD_37  and  CE_38 
REMARK   16  A    between atoms: CE_38  and  NZ_39 
REMARK   17  A    between atoms: N_44  and  CA_45 
REMARK   18  A    between atoms: CA_45  and  C_46 
REMARK   19  A    between atoms: CA_45  and  CB_48 
REMARK       I    between atoms: C_46  and  N_53 
REMARK   20  A    between atoms: CB_48  and  CG_49 
REMARK   21  A    between atoms: N_53  and  CA_54 
REMARK   22  A    between atoms: CA_54  and  CB_57 
REMARK   23  A    between atoms: CA_54  and  C_55 
REMARK       I    between atoms: C_55  and  N_65 
REMARK   24  A    between atoms: CB_57  and  CG_58 
REMARK   25  A    between atoms: N_65  and  CA_66 
REMARK   26  A    between atoms: CA_66  and  C_67 
REMARK       I    between atoms: C_67  and  N_71 
REMARK   27  A    between atoms: N_71  and  CA_72 
REMARK   28  A    between atoms: CA_72  and  C_73 
REMARK   29  A    between atoms: CA_72  and  CB_75 
REMARK       I    between atoms: C_73  and  N_84 
REMARK   30  A    between atoms: CB_75  and  CG_76 
REMARK   31  A    between atoms: CG_76  and  CD_77 
REMARK   32  A    between atoms: CD_77  and  CE_78 
REMARK   33  A    between atoms: CE_78  and  NZ_79 
REMARK   34  A    between atoms: N_84  and  CA_85 
REMARK   35  A    between atoms: CA_85  and  CB_88 
REMARK   36  A    between atoms: CA_85  and  C_86 
REMARK       I    between atoms: C_86  and  N_93 
REMARK   37  A    between atoms: CB_88  and  CG1_89 
REMARK   38  A    between atoms: N_93  and  CA_94 
REMARK   39  A    between atoms: CA_94  and  CB_97 
REMARK   40  A    between atoms: CA_94  and  C_95 
REMARK       I    between atoms: C_95  and  N_102 
REMARK   41  A    between atoms: CB_97  and  OG1_98 
REMARK   42  A    between atoms: N_102  and  CA_103 
REMARK   43  A    between atoms: CA_103  and  CB_106 
REMARK   44  A    between atoms: CA_103  and  C_104 
REMARK       I    between atoms: C_104  and  N_115 
REMARK   45  A    between atoms: CB_106  and  CG_107 
REMARK   46  A    between atoms: CG_107  and  CD_108 
REMARK   47  A    between atoms: CD_108  and  CE_109 
REMARK   48  A    between atoms: CE_109  and  NZ_110 
REMARK   49  A    between atoms: N_115  and  CA_116 
REMARK   50  A    between atoms: CA_116  and  C_117 
REMARK   51  A    between atoms: CA_116  and  CB_119 
REMARK       I    between atoms: C_117  and  N_128 
REMARK   52  A    between atoms: CB_119  and  CG_120 
REMARK   53  A    between atoms: CG_120  and  CD_121 
REMARK   54  A    between atoms: CD_121  and  CE_122 
REMARK   55  A    between atoms: CE_122  and  NZ_123 
REMARK   56  A    between atoms: N_128  and  CA_129 
REMARK   57  A    between atoms: CA_129  and  C_130 
REMARK   58  A    between atoms: CA_129  and  CB_132 
REMARK       I    between atoms: C_130  and  N_139 
REMARK   59  A    between atoms: CB_132  and  CG_133 
REMARK       I    between atoms: CG_133  and  ND2_135 
REMARK   60  A    between atoms: N_139  and  CA_140 
REMARK   61  A    between atoms: CA_140  and  C_141 
REMARK   62  A    between atoms: CA_140  and  CB_143 
REMARK       I    between atoms: C_141  and  N_148 
REMARK   63  A    between atoms: CB_143  and  CG_144 
REMARK   64  A    between atoms: CG_144  and  SD_145 
REMARK   65  A    between atoms: N_148  and  CA_149 
REMARK   66  A    between atoms: CA_149  and  C_150 
REMARK       I    between atoms: C_150  and  N_154 
REMARK   67  A    between atoms: N_154  and  CA_155 
REMARK   68  A    between atoms: CA_155  and  C_156 
REMARK   69  A    between atoms: CA_155  and  CB_158 
REMARK       I    between atoms: C_156  and  N_166 
REMARK   70  A    between atoms: CB_158  and  CG_159 
REMARK   71  A    between atoms: N_166  and  CA_167 
REMARK   72  A    between atoms: CA_167  and  CB_170 
REMARK   73  A    between atoms: CA_167  and  C_168 
REMARK       I    between atoms: C_168  and  N_175 
REMARK   74  A    between atoms: CB_170  and  CG1_171 
REMARK   75  A    between atoms: N_175  and  CA_176 
REMARK   76  A    between atoms: CA_176  and  CB_179 
REMARK   77  A    between atoms: CA_176  and  C_177 
REMARK   78  A    between atoms: CB_179  and  CG_180 
REMARK   79  A    between atoms: CG_180  and  CD_181 
REMARK   80  A    between atoms: CD_181  and  NE_182 
REMARK       I    between atoms: NE_182  and  CZ_183 
REMARK       I    between atoms: CZ_183  and  NH1_184 
ROOT
ATOM      1  N   PHE     1      58.805  44.730  40.006  1.00  0.00    -0.057 N 
ATOM      2  H1  PHE     1      59.372  45.420  39.567  1.00 99.99     0.276 HD
ATOM      3  H2  PHE     1      57.859  45.053  40.029  1.00 99.99     0.276 HD
ATOM      4  H3  PHE     1      59.045  44.644  40.974  1.00 99.99     0.276 HD
ENDROOT
BRANCH   1   5
ATOM      5  CA  PHE     1      58.909  43.414  39.298  1.00  0.00     0.259 C 
BRANCH   5   6
ATOM      6  C   PHE     1      59.499  42.170  40.025  1.00  0.00     0.259 C 
ATOM      7  N   LEU     2      60.824  41.988  40.010  1.00  0.00    -0.338 N 
ATOM      8  H   LEU     2      61.463  42.694  39.709  1.00 99.99     0.164 HD
ATOM      9  O   PHE     1      58.789  41.512  40.787  1.00  0.00    -0.271 OA
BRANCH   7  10
ATOM     10  CA  LEU     2      61.447  40.745  40.522  1.00  0.00     0.160 C 
BRANCH  10  11
ATOM     11  C   LEU     2      61.945  40.795  41.992  1.00  0.00     0.254 C 
ATOM     12  N   PRO     3      62.267  39.665  42.662  1.00  0.00    -0.312 N 
ATOM     13  CD  PRO     3      61.883  38.280  42.311  1.00  0.00     0.105 C 
ATOM     14  CA  PRO     3      62.855  39.680  44.015  1.00  0.00     0.163 C 
ATOM     15  CG  PRO     3      61.947  37.515  43.633  1.00  0.00     0.027 C 
ATOM     16  CB  PRO     3      63.080  38.212  44.380  1.00  0.00     0.034 C 
ATOM     17  O   LEU     2      62.207  41.907  42.444  1.00  0.00    -0.270 OA
BRANCH  14  18
ATOM     18  C   PRO     3      64.169  40.476  44.099  1.00  0.00     0.251 C 
ATOM     19  O   PRO     3      64.172  41.536  44.719  1.00  0.00    -0.271 OA
ATOM     20  N   LYS     4      65.190  40.074  43.333  1.00  0.00    -0.338 N 
ATOM     21  H   LYS     4      65.142  39.236  42.789  1.00 99.99     0.164 HD
BRANCH  20  22
ATOM     22  CA  LYS     4      66.490  40.772  43.266  1.00  0.00     0.159 C 
BRANCH  22  23
ATOM     23  C   LYS     4      66.918  41.354  44.628  1.00  0.00     0.251 C 
ATOM     24  N   LEU     5      67.089  40.488  45.631  1.00  0.00    -0.338 N 
ATOM     25  H   LEU     5      66.831  39.521  45.544  1.00 99.99     0.164 HD
ATOM     26  O   LYS     4      67.210  42.547  44.717  1.00  0.00    -0.271 OA
BRANCH  24  27
ATOM     27  CA  LEU     5      67.603  40.890  46.953  1.00  0.00     0.159 C 
BRANCH  27  28
ATOM     28  C   LEU     5      66.498  41.216  47.962  1.00  0.00     0.251 C 
ATOM     29  N   PHE     6      65.242  41.202  47.503  1.00  0.00    -0.337 N 
ATOM     30  H   PHE     6      65.037  41.077  46.527  1.00 99.99     0.164 HD
ATOM     31  O   LEU     5      66.776  41.275  49.160  1.00  0.00    -0.271 OA
BRANCH  29  32
ATOM     32  CA  PHE     6      64.067  41.410  48.368  1.00  0.00     0.164 C 
BRANCH  32  33
ATOM     33  CB  PHE     6      63.218  42.567  47.827  1.00  0.00     0.056 C 
BRANCH  33  34
ATOM     34  CG  PHE     6      63.399  43.857  48.652  1.00  0.00    -0.044 A 
ATOM     35  CD1 PHE     6      62.298  44.620  48.992  1.00  0.00     0.008 A 
ATOM     36  CE1 PHE     6      62.455  45.781  49.734  1.00  0.00     0.001 A 
ATOM     37  CZ  PHE     6      63.730  46.179  50.145  1.00  0.00     0.000 A 
ATOM     38  CE2 PHE     6      64.838  45.400  49.804  1.00  0.00     0.001 A 
ATOM     39  CD2 PHE     6      64.665  44.241  49.053  1.00  0.00     0.008 A 
ENDBRANCH  33  34
ENDBRANCH  32  33
BRANCH  32  40
ATOM     40  C   PHE     6      63.247  40.117  48.517  1.00  0.00     0.251 C 
ATOM     41  O   PHE     6      63.799  39.118  48.971  1.00  0.00    -0.271 OA
ATOM     42  N   ALA     7      62.078  40.068  47.876  1.00  0.00    -0.338 N 
ATOM     43  H   ALA     7      61.704  40.876  47.400  1.00 99.99     0.164 HD
BRANCH  42  44
ATOM     44  CA  ALA     7      61.209  38.880  47.842  1.00  0.00     0.159 C 
ATOM     45  CB  ALA     7      60.523  38.682  49.198  1.00  0.00     0.034 C 
BRANCH  44  46
ATOM     46  C   ALA     7      60.156  38.925  46.719  1.00  0.00     0.251 C 
ATOM     47  O   ALA     7      60.118  39.912  45.987  1.00  0.00    -0.271 OA
ATOM     48  N   LYS     8      59.220  37.971  46.700  1.00  0.00    -0.338 N 
ATOM     49  H   LYS     8      59.265  37.164  47.301  1.00 99.99     0.164 HD
BRANCH  48  50
ATOM     50  CA  LYS     8      58.103  37.966  45.736  1.00  0.00     0.159 C 
BRANCH  50  51
ATOM     51  C   LYS     8      56.737  38.168  46.423  1.00  0.00     0.251 C 
ATOM     52  O   LYS     8      56.700  38.456  47.617  1.00  0.00    -0.271 OA
ATOM     53  N   ILE     9      55.647  37.872  45.712  1.00  0.00    -0.338 N 
ATOM     54  H   ILE     9      55.715  37.555  44.757  1.00 99.99     0.164 HD
BRANCH  53  55
ATOM     55  CA  ILE     9      54.271  37.996  46.235  1.00  0.00     0.159 C 
BRANCH  55  56
ATOM     56  CB  ILE     9      53.949  36.852  47.226  1.00  0.00     0.029 C 
ATOM     57  CG2 ILE     9      52.439  36.754  47.504  1.00  0.00     0.002 C 
BRANCH  56  58
ATOM     58  CG1 ILE     9      54.467  35.515  46.667  1.00  0.00     0.002 C 
ATOM     59  CD  ILE     9      53.777  35.055  45.376  1.00  0.00     0.000 C 
ENDBRANCH  56  58
ENDBRANCH  55  56
BRANCH  55  60
ATOM     60  C   ILE     9      54.031  39.403  46.823  1.00  0.00     0.251 C 
ATOM     61  N   THR    10      53.843  39.483  48.141  1.00  0.00    -0.336 N 
ATOM     62  H   THR    10      53.797  38.662  48.727  1.00 99.99     0.164 HD
ATOM     63  O   ILE     9      54.193  40.392  46.112  1.00  0.00    -0.271 OA
BRANCH  61  64
ATOM     64  CA  THR    10      53.610  40.751  48.858  1.00  0.00     0.186 C 
BRANCH  64  65
ATOM     65  CB  THR    10      52.769  40.537  50.129  1.00  0.00     0.140 C 
ATOM     66  CG2 THR    10      51.640  39.520  49.914  1.00  0.00     0.034 C 
BRANCH  65  67
ATOM     67  OG1 THR    10      53.624  40.047  51.169  1.00  0.00    -0.382 OA
ATOM     68  HG1 THR    10      53.736  40.739  51.886  1.00 99.99     0.210 HD
ENDBRANCH  65  67
ENDBRANCH  64  65
BRANCH  64  69
ATOM     69  C   THR    10      54.938  41.471  49.165  1.00  0.00     0.253 C 
ATOM     70  O   THR    10      54.900  42.458  49.894  1.00  0.00    -0.270 OA
ATOM     71  N   LYS    11      56.025  41.122  48.469  1.00  0.00    -0.337 N 
ATOM     72  H   LYS    11      56.037  40.350  47.821  1.00 99.99     0.164 HD
BRANCH  71  73
ATOM     73  CA  LYS    11      57.313  41.826  48.621  1.00  0.00     0.159 C 
BRANCH  73  74
ATOM     74  CB  LYS    11      57.162  43.351  48.621  1.00  0.00     0.032 C 
BRANCH  74  75
ATOM     75  CG  LYS    11      57.525  43.956  47.263  1.00  0.00     0.004 C 
BRANCH  75  76
ATOM     76  CD  LYS    11      59.014  44.303  47.202  1.00  0.00     0.032 C 
BRANCH  76  77
ATOM     77  CE  LYS    11      59.799  43.207  46.474  1.00  0.00     0.206 C 
BRANCH  77  78
ATOM     78  NZ  LYS    11      59.089  42.752  45.273  1.00  0.00    -0.064 N 
ATOM     79  HZ3 LYS    11      59.200  43.428  44.543  1.00 99.99     0.275 HD
ATOM     80  HZ2 LYS    11      58.115  42.643  45.477  1.00 99.99     0.275 HD
ATOM     81  HZ1 LYS    11      59.468  41.876  44.973  1.00 99.99     0.275 HD
ENDBRANCH  77  78
ENDBRANCH  76  77
ENDBRANCH  75  76
ENDBRANCH  74  75
ENDBRANCH  73  74
BRANCH  73  82
ATOM     82  C   LYS    11      58.117  41.385  49.857  1.00  0.00     0.251 C 
ATOM     83  O   LYS    11      57.707  40.437  50.525  1.00  0.00    -0.271 OA
ATOM     84  N   LYS    12      59.126  42.164  50.254  1.00  0.00    -0.338 N 
ATOM     85  H   LYS    12      59.425  42.972  49.725  1.00 99.99     0.164 HD
BRANCH  84  86
ATOM     86  CA  LYS    12      59.919  41.886  51.463  1.00  0.00     0.159 C 
BRANCH  86  87
ATOM     87  C   LYS    12      59.083  42.085  52.743  1.00  0.00     0.251 C 
ATOM     88  O   LYS    12      59.011  43.201  53.253  1.00  0.00    -0.271 OA
ATOM     89  N   ASN    13      58.639  40.983  53.347  1.00  0.00    -0.337 N 
ATOM     90  H   ASN    13      58.756  40.073  52.923  1.00 99.99     0.164 HD
BRANCH  89  91
ATOM     91  CA  ASN    13      57.843  40.997  54.586  1.00  0.00     0.169 C 
BRANCH  91  92
ATOM     92  C   ASN    13      58.496  40.144  55.697  1.00  0.00     0.251 C 
ATOM     93  N   MET    14      57.831  40.079  56.851  1.00  0.00    -0.337 N 
ATOM     94  H   MET    14      56.997  40.628  56.994  1.00 99.99     0.164 HD
ATOM     95  O   ASN    13      59.430  39.392  55.427  1.00  0.00    -0.271 OA
BRANCH  93  96
ATOM     96  CA  MET    14      58.207  39.268  58.028  1.00  0.00     0.160 C 
BRANCH  96  97
ATOM     97  C   MET    14      59.661  39.455  58.520  1.00  0.00     0.251 C 
ATOM     98  O   MET    14      60.429  38.494  58.544  1.00  0.00    -0.271 OA
ATOM     99  N   ALA    15      60.041  40.689  58.857  1.00  0.00    -0.338 N 
ATOM    100  H   ALA    15      59.535  41.493  58.525  1.00 99.99     0.164 HD
BRANCH  99 101
ATOM    101  CA  ALA    15      61.326  41.006  59.509  1.00  0.00     0.159 C 
ATOM    102  CB  ALA    15      61.619  39.968  60.597  1.00  0.00     0.034 C 
BRANCH 101 103
ATOM    103  C   ALA    15      62.520  41.091  58.535  1.00  0.00     0.251 C 
ATOM    104  O   ALA    15      62.356  40.898  57.331  1.00  0.00    -0.271 OA
ATOM    105  N   HIS    16      63.687  41.465  59.057  1.00  0.00    -0.337 N 
ATOM    106  H   HIS    16      63.724  41.844  59.990  1.00 99.99     0.164 HD
BRANCH 105 107
ATOM    107  CA  HIS    16      64.968  41.547  58.329  1.00  0.00     0.165 C 
BRANCH 107 108
ATOM    108  C   HIS    16      65.606  40.171  58.032  1.00  0.00     0.251 C 
ATOM    109  O   HIS    16      66.235  39.578  58.907  1.00  0.00    -0.271 OA
ATOM    110  N   ILE    17      65.387  39.650  56.824  1.00  0.00    -0.338 N 
ATOM    111  H   ILE    17      64.738  40.088  56.196  1.00 99.99     0.164 HD
BRANCH 110 112
ATOM    112  CA  ILE    17      65.866  38.314  56.390  1.00  0.00     0.159 C 
BRANCH 112 113
ATOM    113  CB  ILE    17      64.853  37.738  55.363  1.00  0.00     0.029 C 
ATOM    114  CG2 ILE    17      65.176  36.297  54.917  1.00  0.00     0.002 C 
BRANCH 113 115
ATOM    115  CG1 ILE    17      63.430  37.802  55.947  1.00  0.00     0.002 C 
ATOM    116  CD  ILE    17      62.315  37.384  54.974  1.00  0.00     0.000 C 
ENDBRANCH 113 115
ENDBRANCH 112 113
BRANCH 112 117
ATOM    117  C   ILE    17      67.331  38.301  55.892  1.00  0.00     0.251 C 
ATOM    118  O   ILE    17      68.200  37.691  56.515  1.00  0.00    -0.271 OA
ATOM    119  N   ARG    18      67.622  39.046  54.828  1.00  0.00    -0.336 N 
ATOM    120  H   ARG    18      67.040  39.807  54.549  1.00 99.99     0.164 HD
BRANCH 119 121
ATOM    121  CA  ARG    18      68.920  38.965  54.121  1.00  0.00     0.168 C 
BRANCH 121 122
ATOM    122  CB  ARG    18      68.608  38.456  52.713  1.00  0.00     0.035 C 
BRANCH 122 123
ATOM    123  CG  ARG    18      67.209  38.828  52.217  1.00  0.00     0.027 C 
BRANCH 123 124
ATOM    124  CD  ARG    18      66.536  37.616  51.569  1.00  0.00     0.116 C 
BRANCH 124 125
ATOM    125  NE  ARG    18      66.187  37.923  50.177  1.00  0.00    -0.212 N 
ATOM    126  CZ  ARG    18      66.855  37.526  49.091  1.00  0.00     0.666 C 
ATOM    127  NH1 ARG    18      68.002  36.873  49.169  1.00  0.00    -0.235 N 
ATOM    128  NH2 ARG    18      66.279  37.623  47.905  1.00  0.00    -0.235 N 
ATOM    129 2HH1 ARG    18      68.389  36.695  50.077  1.00 99.99     0.174 HD
ATOM    130 1HH1 ARG    18      68.480  36.586  48.347  1.00 99.99     0.174 HD
ATOM    131 2HH2 ARG    18      65.362  38.018  47.837  1.00 99.99     0.174 HD
ATOM    132 1HH2 ARG    18      66.764  37.328  47.090  1.00 99.99     0.174 HD
ATOM    133  HE  ARG    18      65.430  38.566  50.061  1.00 99.99     0.178 HD
ENDBRANCH 124 125
ENDBRANCH 123 124
ENDBRANCH 122 123
ENDBRANCH 121 122
BRANCH 121 134
ATOM    134  C   ARG    18      69.646  40.321  54.054  1.00  0.00     0.206 C 
ATOM    135  O   ARG    18      68.954  41.362  54.135  1.00 99.99    -0.646 OA
ATOM    136  OXT ARG    18      70.893  40.274  54.048  1.00 99.99    -0.646 OA
ENDBRANCH 121 134
ENDBRANCH 119 121
ENDBRANCH 112 117
ENDBRANCH 110 112
ENDBRANCH 107 108
BRANCH 107 137
ATOM    137  CB  HIS    16      65.907  42.441  59.159  1.00  0.00     0.077 C 
BRANCH 137 138
ATOM    138  CG  HIS    16      67.042  43.091  58.355  1.00  0.00     0.057 A 
ATOM    139  CD2 HIS    16      68.266  43.354  58.803  1.00  0.00     0.113 A 
ATOM    140  NE2 HIS    16      69.034  43.675  57.766  1.00  0.00    -0.223 NA
ATOM    141  CE1 HIS    16      68.273  43.635  56.676  1.00  0.00     0.175 A 
ATOM    142  ND1 HIS    16      67.038  43.303  57.041  1.00  0.00    -0.338 N 
ATOM    143  HD1 HIS    16      66.230  43.336  56.452  1.00 99.99     0.167 HD
ENDBRANCH 137 138
ENDBRANCH 107 137
ENDBRANCH 105 107
ENDBRANCH 101 103
ENDBRANCH  99 101
ENDBRANCH  96  97
BRANCH  96 144
ATOM    144  CB  MET    14      57.841  37.817  57.673  1.00  0.00     0.043 C 
BRANCH 144 145
ATOM    145  CG  MET    14      56.573  37.188  58.266  1.00  0.00     0.060 C 
BRANCH 145 146
ATOM    146  SD  MET    14      55.119  38.282  58.472  1.00  0.00    -0.139 SA
ATOM    147  CE  MET    14      54.280  37.561  59.867  1.00  0.00     0.069 C 
ENDBRANCH 145 146
ENDBRANCH 144 145
ENDBRANCH  96 144
ENDBRANCH  93  96
ENDBRANCH  91  92
BRANCH  91 148
ATOM    148  CB  ASN    13      56.405  40.524  54.300  1.00  0.00     0.119 C 
BRANCH 148 149
ATOM    149  CG  ASN    13      56.269  39.068  53.827  1.00  0.00     0.230 C 
ATOM    150  ND2 ASN    13      56.064  38.904  52.536  1.00  0.00    -0.369 N 
ATOM    151 2HD2 ASN    13      55.988  39.688  51.929  1.00 99.99     0.159 HD
ATOM    152 1HD2 ASN    13      55.975  37.966  52.219  1.00 99.99     0.159 HD
ATOM    153  OD1 ASN    13      56.288  38.091  54.560  1.00  0.00    -0.273 OA
ENDBRANCH 148 149
ENDBRANCH  91 148
ENDBRANCH  89  91
ENDBRANCH  86  87
BRANCH  86 154
ATOM    154  CB  LYS    12      61.193  42.747  51.506  1.00  0.00     0.032 C 
BRANCH 154 155
ATOM    155  CG  LYS    12      62.323  42.010  52.231  1.00  0.00     0.004 C 
BRANCH 155 156
ATOM    156  CD  LYS    12      62.308  40.499  51.998  1.00  0.00     0.032 C 
BRANCH 156 157
ATOM    157  CE  LYS    12      63.644  39.914  52.460  1.00  0.00     0.206 C 
BRANCH 157 158
ATOM    158  NZ  LYS    12      64.227  40.684  53.568  1.00  0.00    -0.064 N 
ATOM    159  HZ3 LYS    12      64.207  40.134  54.403  1.00 99.99     0.275 HD
ATOM    160  HZ2 LYS    12      63.698  41.521  53.704  1.00 99.99     0.275 HD
ATOM    161  HZ1 LYS    12      65.174  40.918  53.345  1.00 99.99     0.275 HD
ENDBRANCH 157 158
ENDBRANCH 156 157
ENDBRANCH 155 156
ENDBRANCH 154 155
ENDBRANCH  86 154
ENDBRANCH  84  86
ENDBRANCH  73  82
ENDBRANCH  71  73
ENDBRANCH  64  69
ENDBRANCH  61  64
ENDBRANCH  55  60
ENDBRANCH  53  55
ENDBRANCH  50  51
BRANCH  50 162
ATOM    162  CB  LYS     8      58.116  36.683  44.889  1.00  0.00     0.032 C 
BRANCH 162 163
ATOM    163  CG  LYS     8      58.491  36.966  43.430  1.00  0.00     0.004 C 
BRANCH 163 164
ATOM    164  CD  LYS     8      57.855  38.248  42.888  1.00  0.00     0.032 C 
BRANCH 164 165
ATOM    165  CE  LYS     8      57.532  38.083  41.398  1.00  0.00     0.206 C 
BRANCH 165 166
ATOM    166  NZ  LYS     8      58.661  37.532  40.638  1.00  0.00    -0.064 N 
ATOM    167  HZ3 LYS     8      58.370  37.321  39.704  1.00 99.99     0.275 HD
ATOM    168  HZ1 LYS     8      59.400  38.206  40.608  1.00 99.99     0.275 HD
ATOM    169  HZ2 LYS     8      58.993  36.699  41.081  1.00 99.99     0.275 HD
ENDBRANCH 165 166
ENDBRANCH 164 165
ENDBRANCH 163 164
ENDBRANCH 162 163
ENDBRANCH  50 162
ENDBRANCH  48  50
ENDBRANCH  44  46
ENDBRANCH  42  44
ENDBRANCH  32  40
ENDBRANCH  29  32
ENDBRANCH  27  28
BRANCH  27 170
ATOM    170  CB  LEU     5      68.608  42.046  46.841  1.00  0.00     0.032 C 
BRANCH 170 171
ATOM    171  CG  LEU     5      70.040  41.561  46.582  1.00  0.00     0.002 C 
ATOM    172  CD2 LEU     5      70.351  40.275  47.358  1.00  0.00     0.000 C 
ATOM    173  CD1 LEU     5      71.029  42.654  46.992  1.00  0.00     0.000 C 
ENDBRANCH 170 171
ENDBRANCH  27 170
ENDBRANCH  24  27
ENDBRANCH  22  23
BRANCH  22 174
ATOM    174  CB  LYS     4      66.448  41.862  42.180  1.00  0.00     0.032 C 
BRANCH 174 175
ATOM    175  CG  LYS     4      67.338  41.538  40.972  1.00  0.00     0.004 C 
BRANCH 175 176
ATOM    176  CD  LYS     4      68.718  41.008  41.377  1.00  0.00     0.032 C 
BRANCH 176 177
ATOM    177  CE  LYS     4      69.679  42.165  41.669  1.00  0.00     0.206 C 
BRANCH 177 178
ATOM    178  NZ  LYS     4      69.925  42.350  43.111  1.00  0.00    -0.064 N 
ATOM    179  HZ1 LYS     4      69.138  42.813  43.522  1.00 99.99     0.275 HD
ATOM    180  HZ2 LYS     4      70.046  41.462  43.551  1.00 99.99     0.275 HD
ATOM    181  HZ3 LYS     4      70.741  42.910  43.249  1.00 99.99     0.275 HD
ENDBRANCH 177 178
ENDBRANCH 176 177
ENDBRANCH 175 176
ENDBRANCH 174 175
ENDBRANCH  22 174
ENDBRANCH  20  22
ENDBRANCH  14  18
ENDBRANCH  10  11
BRANCH  10 182
ATOM    182  CB  LEU     2      62.500  40.211  39.534  1.00  0.00     0.032 C 
BRANCH 182 183
ATOM    183  CG  LEU     2      62.605  40.997  38.216  1.00  0.00     0.002 C 
ATOM    184  CD2 LEU     2      62.037  40.160  37.068  1.00  0.00     0.000 C 
ATOM    185  CD1 LEU     2      64.048  41.414  37.906  1.00  0.00     0.000 C 
ENDBRANCH 182 183
ENDBRANCH  10 182
ENDBRANCH   7  10
ENDBRANCH   5   6
BRANCH   5 186
ATOM    186  CB  PHE     1      59.680  43.571  37.984  1.00  0.00     0.064 C 
BRANCH 186 187
ATOM    187  CG  PHE     1      58.834  43.266  36.744  1.00  0.00    -0.044 A 
ATOM    188  CD1 PHE     1      58.377  44.310  35.965  1.00  0.00     0.008 A 
ATOM    189  CE1 PHE     1      57.576  44.056  34.869  1.00  0.00     0.001 A 
ATOM    190  CZ  PHE     1      57.220  42.751  34.549  1.00  0.00     0.000 A 
ATOM    191  CE2 PHE     1      57.680  41.690  35.338  1.00  0.00     0.001 A 
ATOM    192  CD2 PHE     1      58.498  41.955  36.437  1.00  0.00     0.008 A 
ENDBRANCH 186 187
ENDBRANCH   5 186
ENDBRANCH   1   5
TORSDOF 80
ENDMDL
MODEL 3
REMARK VINA RESULT:      -3.7      1.740      2.946
REMARK WARNING: 32 MAX_TORS EXCEEDED!!!
REMARK  80 active torsions:
REMARK  status: ('A' for Active; 'I' for Inactive)
REMARK    1  A    between atoms: N_1  and  CA_2 
REMARK    2  A    between atoms: CA_2  and  C_3 
REMARK    3  A    between atoms: CA_2  and  CB_5 
REMARK       I    between atoms: C_3  and  N_15 
REMARK    4  A    between atoms: CB_5  and  CG_6 
REMARK    5  A    between atoms: N_15  and  CA_16 
REMARK    6  A    between atoms: CA_16  and  C_17 
REMARK    7  A    between atoms: CA_16  and  CB_19 
REMARK       I    between atoms: C_17  and  N_24 
REMARK    8  A    between atoms: CB_19  and  CG_20 
REMARK    9  A    between atoms: CA_25  and  C_26 
REMARK       I    between atoms: C_26  and  N_31 
REMARK   10  A    between atoms: N_31  and  CA_32 
REMARK   11  A    between atoms: CA_32  and  C_33 
REMARK   12  A    between atoms: CA_32  and  CB_35 
REMARK       I    between atoms: C_33  and  N_44 
REMARK   13  A    between atoms: CB_35  and  CG_36 
REMARK   14  A    between atoms: CG_36  and  CD_37 
REMARK   15  A    between atoms: CD_37  and  CE_38 
REMARK   16  A    between atoms: CE_38  and  NZ_39 
REMARK   17  A    between atoms: N_44  and  CA_45 
REMARK   18  A    between atoms: CA_45  and  C_46 
REMARK   19  A    between atoms: CA_45  and  CB_48 
REMARK       I    between atoms: C_46  and  N_53 
REMARK   20  A    between atoms: CB_48  and  CG_49 
REMARK   21  A    between atoms: N_53  and  CA_54 
REMARK   22  A    between atoms: CA_54  and  CB_57 
REMARK   23  A    between atoms: CA_54  and  C_55 
REMARK       I    between atoms: C_55  and  N_65 
REMARK   24  A    between atoms: CB_57  and  CG_58 
REMARK   25  A    between atoms: N_65  and  CA_66 
REMARK   26  A    between atoms: CA_66  and  C_67 
REMARK       I    between atoms: C_67  and  N_71 
REMARK   27  A    between atoms: N_71  and  CA_72 
REMARK   28  A    between atoms: CA_72  and  C_73 
REMARK   29  A    between atoms: CA_72  and  CB_75 
REMARK       I    between atoms: C_73  and  N_84 
REMARK   30  A    between atoms: CB_75  and  CG_76 
REMARK   31  A    between atoms: CG_76  and  CD_77 
REMARK   32  A    between atoms: CD_77  and  CE_78 
REMARK   33  A    between atoms: CE_78  and  NZ_79 
REMARK   34  A    between atoms: N_84  and  CA_85 
REMARK   35  A    between atoms: CA_85  and  CB_88 
REMARK   36  A    between atoms: CA_85  and  C_86 
REMARK       I    between atoms: C_86  and  N_93 
REMARK   37  A    between atoms: CB_88  and  CG1_89 
REMARK   38  A    between atoms: N_93  and  CA_94 
REMARK   39  A    between atoms: CA_94  and  CB_97 
REMARK   40  A    between atoms: CA_94  and  C_95 
REMARK       I    between atoms: C_95  and  N_102 
REMARK   41  A    between atoms: CB_97  and  OG1_98 
REMARK   42  A    between atoms: N_102  and  CA_103 
REMARK   43  A    between atoms: CA_103  and  CB_106 
REMARK   44  A    between atoms: CA_103  and  C_104 
REMARK       I    between atoms: C_104  and  N_115 
REMARK   45  A    between atoms: CB_106  and  CG_107 
REMARK   46  A    between atoms: CG_107  and  CD_108 
REMARK   47  A    between atoms: CD_108  and  CE_109 
REMARK   48  A    between atoms: CE_109  and  NZ_110 
REMARK   49  A    between atoms: N_115  and  CA_116 
REMARK   50  A    between atoms: CA_116  and  C_117 
REMARK   51  A    between atoms: CA_116  and  CB_119 
REMARK       I    between atoms: C_117  and  N_128 
REMARK   52  A    between atoms: CB_119  and  CG_120 
REMARK   53  A    between atoms: CG_120  and  CD_121 
REMARK   54  A    between atoms: CD_121  and  CE_122 
REMARK   55  A    between atoms: CE_122  and  NZ_123 
REMARK   56  A    between atoms: N_128  and  CA_129 
REMARK   57  A    between atoms: CA_129  and  C_130 
REMARK   58  A    between atoms: CA_129  and  CB_132 
REMARK       I    between atoms: C_130  and  N_139 
REMARK   59  A    between atoms: CB_132  and  CG_133 
REMARK       I    between atoms: CG_133  and  ND2_135 
REMARK   60  A    between atoms: N_139  and  CA_140 
REMARK   61  A    between atoms: CA_140  and  C_141 
REMARK   62  A    between atoms: CA_140  and  CB_143 
REMARK       I    between atoms: C_141  and  N_148 
REMARK   63  A    between atoms: CB_143  and  CG_144 
REMARK   64  A    between atoms: CG_144  and  SD_145 
REMARK   65  A    between atoms: N_148  and  CA_149 
REMARK   66  A    between atoms: CA_149  and  C_150 
REMARK       I    between atoms: C_150  and  N_154 
REMARK   67  A    between atoms: N_154  and  CA_155 
REMARK   68  A    between atoms: CA_155  and  C_156 
REMARK   69  A    between atoms: CA_155  and  CB_158 
REMARK       I    between atoms: C_156  and  N_166 
REMARK   70  A    between atoms: CB_158  and  CG_159 
REMARK   71  A    between atoms: N_166  and  CA_167 
REMARK   72  A    between atoms: CA_167  and  CB_170 
REMARK   73  A    between atoms: CA_167  and  C_168 
REMARK       I    between atoms: C_168  and  N_175 
REMARK   74  A    between atoms: CB_170  and  CG1_171 
REMARK   75  A    between atoms: N_175  and  CA_176 
REMARK   76  A    between atoms: CA_176  and  CB_179 
REMARK   77  A    between atoms: CA_176  and  C_177 
REMARK   78  A    between atoms: CB_179  and  CG_180 
REMARK   79  A    between atoms: CG_180  and  CD_181 
REMARK   80  A    between atoms: CD_181  and  NE_182 
REMARK       I    between atoms: NE_182  and  CZ_183 
REMARK       I    between atoms: CZ_183  and  NH1_184 
ROOT
ATOM      1  N   PHE     1      59.168  44.370  38.721  1.00  0.00    -0.057 N 
ATOM      2  H1  PHE     1      59.811  45.106  38.903  1.00 99.99     0.276 HD
ATOM      3  H2  PHE     1      58.336  44.756  38.322  1.00 99.99     0.276 HD
ATOM      4  H3  PHE     1      58.848  43.964  39.577  1.00 99.99     0.276 HD
ENDROOT
BRANCH   1   5
ATOM      5  CA  PHE     1      59.770  43.337  37.818  1.00  0.00     0.259 C 
BRANCH   5   6
ATOM      6  C   PHE     1      60.111  41.917  38.359  1.00  0.00     0.259 C 
ATOM      7  N   LEU     2      61.127  41.787  39.219  1.00  0.00    -0.338 N 
ATOM      8  H   LEU     2      61.563  42.568  39.662  1.00 99.99     0.164 HD
ATOM      9  O   PHE     1      59.321  40.988  38.184  1.00  0.00    -0.271 OA
BRANCH   7  10
ATOM     10  CA  LEU     2      61.628  40.457  39.641  1.00  0.00     0.160 C 
BRANCH  10  11
ATOM     11  C   LEU     2      62.098  40.351  41.117  1.00  0.00     0.254 C 
ATOM     12  N   PRO     3      62.396  39.155  41.672  1.00  0.00    -0.312 N 
ATOM     13  CD  PRO     3      62.005  37.818  41.175  1.00  0.00     0.105 C 
ATOM     14  CA  PRO     3      62.959  39.024  43.030  1.00  0.00     0.163 C 
ATOM     15  CG  PRO     3      62.036  36.920  42.412  1.00  0.00     0.027 C 
ATOM     16  CB  PRO     3      63.161  37.524  43.247  1.00  0.00     0.034 C 
ATOM     17  O   LEU     2      62.363  41.407  41.685  1.00  0.00    -0.270 OA
BRANCH  14  18
ATOM     18  C   PRO     3      64.279  39.791  43.218  1.00  0.00     0.251 C 
ATOM     19  O   PRO     3      64.302  40.730  44.009  1.00  0.00    -0.271 OA
ATOM     20  N   LYS     4      65.281  39.522  42.373  1.00  0.00    -0.338 N 
ATOM     21  H   LYS     4      65.216  38.789  41.696  1.00 99.99     0.164 HD
BRANCH  20  22
ATOM     22  CA  LYS     4      66.583  40.219  42.397  1.00  0.00     0.159 C 
BRANCH  22  23
ATOM     23  C   LYS     4      66.935  40.767  43.795  1.00  0.00     0.251 C 
ATOM     24  N   LEU     5      67.498  39.915  44.656  1.00  0.00    -0.338 N 
ATOM     25  H   LEU     5      67.577  38.934  44.454  1.00 99.99     0.164 HD
ATOM     26  O   LYS     4      66.812  41.970  44.027  1.00  0.00    -0.271 OA
BRANCH  24  27
ATOM     27  CA  LEU     5      67.987  40.329  45.983  1.00  0.00     0.159 C 
BRANCH  27  28
ATOM     28  C   LEU     5      66.905  40.297  47.067  1.00  0.00     0.251 C 
ATOM     29  N   PHE     6      65.643  40.468  46.661  1.00  0.00    -0.337 N 
ATOM     30  H   PHE     6      65.420  40.700  45.708  1.00 99.99     0.164 HD
ATOM     31  O   LEU     5      67.202  39.923  48.201  1.00  0.00    -0.271 OA
BRANCH  29  32
ATOM     32  CA  PHE     6      64.485  40.377  47.569  1.00  0.00     0.164 C 
BRANCH  32  33
ATOM     33  CB  PHE     6      63.608  41.626  47.425  1.00  0.00     0.056 C 
BRANCH  33  34
ATOM     34  CG  PHE     6      64.409  42.927  47.628  1.00  0.00    -0.044 A 
ATOM     35  CD1 PHE     6      65.017  43.539  46.549  1.00  0.00     0.008 A 
ATOM     36  CE1 PHE     6      65.739  44.711  46.725  1.00  0.00     0.001 A 
ATOM     37  CZ  PHE     6      65.846  45.279  47.998  1.00  0.00     0.000 A 
ATOM     38  CE2 PHE     6      65.223  44.659  49.083  1.00  0.00     0.001 A 
ATOM     39  CD2 PHE     6      64.508  43.480  48.891  1.00  0.00     0.008 A 
ENDBRANCH  33  34
ENDBRANCH  32  33
BRANCH  32  40
ATOM     40  C   PHE     6      63.688  39.083  47.330  1.00  0.00     0.251 C 
ATOM     41  O   PHE     6      64.277  38.007  47.385  1.00  0.00    -0.271 OA
ATOM     42  N   ALA     7      62.475  39.215  46.788  1.00  0.00    -0.338 N 
ATOM     43  H   ALA     7      62.063  40.124  46.636  1.00 99.99     0.164 HD
BRANCH  42  44
ATOM     44  CA  ALA     7      61.615  38.081  46.415  1.00  0.00     0.159 C 
ATOM     45  CB  ALA     7      61.169  37.316  47.666  1.00  0.00     0.034 C 
BRANCH  44  46
ATOM     46  C   ALA     7      60.386  38.494  45.583  1.00  0.00     0.251 C 
ATOM     47  O   ALA     7      60.295  39.661  45.208  1.00  0.00    -0.271 OA
ATOM     48  N   LYS     8      59.392  37.610  45.453  1.00  0.00    -0.338 N 
ATOM     49  H   LYS     8      59.481  36.654  45.759  1.00 99.99     0.164 HD
BRANCH  48  50
ATOM     50  CA  LYS     8      58.126  37.925  44.765  1.00  0.00     0.159 C 
BRANCH  50  51
ATOM     51  C   LYS     8      56.994  38.269  45.755  1.00  0.00     0.251 C 
ATOM     52  O   LYS     8      57.279  38.668  46.882  1.00  0.00    -0.271 OA
ATOM     53  N   ILE     9      55.747  37.970  45.383  1.00  0.00    -0.338 N 
ATOM     54  H   ILE     9      55.553  37.562  44.481  1.00 99.99     0.164 HD
BRANCH  53  55
ATOM     55  CA  ILE     9      54.559  38.220  46.226  1.00  0.00     0.159 C 
BRANCH  55  56
ATOM     56  CB  ILE     9      54.454  37.173  47.360  1.00  0.00     0.029 C 
ATOM     57  CG2 ILE     9      52.996  36.970  47.807  1.00  0.00     0.002 C 
BRANCH  56  58
ATOM     58  CG1 ILE     9      55.051  35.834  46.892  1.00  0.00     0.002 C 
ATOM     59  CD  ILE     9      54.074  34.652  46.936  1.00  0.00     0.000 C 
ENDBRANCH  56  58
ENDBRANCH  55  56
BRANCH  55  60
ATOM     60  C   ILE     9      54.542  39.678  46.732  1.00  0.00     0.251 C 
ATOM     61  N   THR    10      54.846  39.875  48.016  1.00  0.00    -0.336 N 
ATOM     62  H   THR    10      55.019  39.108  48.650  1.00 99.99     0.164 HD
ATOM     63  O   ILE     9      54.431  40.599  45.926  1.00  0.00    -0.271 OA
BRANCH  61  64
ATOM     64  CA  THR    10      54.883  41.205  48.653  1.00  0.00     0.186 C 
BRANCH  64  65
ATOM     65  CB  THR    10      54.268  41.176  50.064  1.00  0.00     0.140 C 
ATOM     66  CG2 THR    10      52.991  40.327  50.123  1.00  0.00     0.034 C 
BRANCH  65  67
ATOM     67  OG1 THR    10      55.225  40.614  50.970  1.00  0.00    -0.382 OA
ATOM     68  HG1 THR    10      56.149  40.678  50.588  1.00 99.99     0.210 HD
ENDBRANCH  65  67
ENDBRANCH  64  65
BRANCH  64  69
ATOM     69  C   THR    10      56.313  41.779  48.664  1.00  0.00     0.253 C 
ATOM     70  O   THR    10      56.562  42.683  49.456  1.00  0.00    -0.270 OA
ATOM     71  N   LYS    11      57.149  41.419  47.685  1.00  0.00    -0.337 N 
ATOM     72  H   LYS    11      56.918  40.721  46.994  1.00 99.99     0.164 HD
BRANCH  71  73
ATOM     73  CA  LYS    11      58.501  41.997  47.555  1.00  0.00     0.159 C 
BRANCH  73  74
ATOM     74  CB  LYS    11      58.493  43.530  47.521  1.00  0.00     0.032 C 
BRANCH  74  75
ATOM     75  CG  LYS    11      58.748  44.064  46.109  1.00  0.00     0.004 C 
BRANCH  75  76
ATOM     76  CD  LYS    11      59.413  43.000  45.235  1.00  0.00     0.032 C 
BRANCH  76  77
ATOM     77  CE  LYS    11      60.925  43.230  45.154  1.00  0.00     0.206 C 
BRANCH  77  78
ATOM     78  NZ  LYS    11      61.592  42.144  44.425  1.00  0.00    -0.064 N 
ATOM     79  HZ3 LYS    11      61.798  42.446  43.493  1.00 99.99     0.275 HD
ATOM     80  HZ2 LYS    11      60.992  41.344  44.389  1.00 99.99     0.275 HD
ATOM     81  HZ1 LYS    11      62.444  41.903  44.891  1.00 99.99     0.275 HD
ENDBRANCH  77  78
ENDBRANCH  76  77
ENDBRANCH  75  76
ENDBRANCH  74  75
ENDBRANCH  73  74
BRANCH  73  82
ATOM     82  C   LYS    11      59.488  41.508  48.631  1.00  0.00     0.251 C 
ATOM     83  O   LYS    11      60.080  40.445  48.454  1.00  0.00    -0.271 OA
ATOM     84  N   LYS    12      59.523  42.169  49.790  1.00  0.00    -0.338 N 
ATOM     85  H   LYS    12      58.992  43.016  49.945  1.00 99.99     0.164 HD
BRANCH  84  86
ATOM     86  CA  LYS    12      60.370  41.753  50.920  1.00  0.00     0.159 C 
BRANCH  86  87
ATOM     87  C   LYS    12      59.631  41.908  52.264  1.00  0.00     0.251 C 
ATOM     88  O   LYS    12      59.494  43.026  52.754  1.00  0.00    -0.271 OA
ATOM     89  N   ASN    13      59.352  40.787  52.928  1.00  0.00    -0.337 N 
ATOM     90  H   ASN    13      59.522  39.880  52.515  1.00 99.99     0.164 HD
BRANCH  89  91
ATOM     91  CA  ASN    13      58.668  40.760  54.233  1.00  0.00     0.169 C 
BRANCH  91  92
ATOM     92  C   ASN    13      59.584  40.213  55.349  1.00  0.00     0.251 C 
ATOM     93  N   MET    14      58.999  39.990  56.528  1.00  0.00    -0.337 N 
ATOM     94  H   MET    14      58.037  40.248  56.680  1.00 99.99     0.164 HD
ATOM     95  O   ASN    13      60.704  39.788  55.075  1.00  0.00    -0.271 OA
BRANCH  93  96
ATOM     96  CA  MET    14      59.641  39.395  57.719  1.00  0.00     0.160 C 
BRANCH  96  97
ATOM     97  C   MET    14      61.153  39.684  57.867  1.00  0.00     0.251 C 
ATOM     98  O   MET    14      61.970  38.777  57.710  1.00  0.00    -0.271 OA
ATOM     99  N   ALA    15      61.515  40.945  58.114  1.00  0.00    -0.338 N 
ATOM    100  H   ALA    15      60.894  41.709  57.910  1.00 99.99     0.164 HD
BRANCH  99 101
ATOM    101  CA  ALA    15      62.891  41.354  58.457  1.00  0.00     0.159 C 
ATOM    102  CB  ALA    15      63.520  40.311  59.386  1.00  0.00     0.034 C 
BRANCH 101 103
ATOM    103  C   ALA    15      63.802  41.579  57.232  1.00  0.00     0.251 C 
ATOM    104  O   ALA    15      63.315  41.728  56.112  1.00  0.00    -0.271 OA
ATOM    105  N   HIS    16      65.108  41.688  57.475  1.00  0.00    -0.337 N 
ATOM    106  H   HIS    16      65.437  41.801  58.421  1.00 99.99     0.164 HD
BRANCH 105 107
ATOM    107  CA  HIS    16      66.163  41.836  56.454  1.00  0.00     0.165 C 
BRANCH 107 108
ATOM    108  C   HIS    16      66.691  40.492  55.903  1.00  0.00     0.251 C 
ATOM    109  O   HIS    16      66.546  40.210  54.714  1.00  0.00    -0.271 OA
ATOM    110  N   ILE    17      67.351  39.706  56.755  1.00  0.00    -0.338 N 
ATOM    111  H   ILE    17      67.587  40.041  57.670  1.00 99.99     0.164 HD
BRANCH 110 112
ATOM    112  CA  ILE    17      67.982  38.415  56.384  1.00  0.00     0.159 C 
BRANCH 112 113
ATOM    113  CB  ILE    17      66.869  37.338  56.270  1.00  0.00     0.029 C 
ATOM    114  CG2 ILE    17      67.391  35.893  56.402  1.00  0.00     0.002 C 
BRANCH 113 115
ATOM    115  CG1 ILE    17      65.781  37.603  57.326  1.00  0.00     0.002 C 
ATOM    116  CD  ILE    17      64.675  36.538  57.393  1.00  0.00     0.000 C 
ENDBRANCH 113 115
ENDBRANCH 112 113
BRANCH 112 117
ATOM    117  C   ILE    17      68.898  38.497  55.140  1.00  0.00     0.251 C 
ATOM    118  O   ILE    17      69.966  39.107  55.185  1.00  0.00    -0.271 OA
ATOM    119  N   ARG    18      68.443  37.964  54.008  1.00  0.00    -0.336 N 
ATOM    120  H   ARG    18      67.468  37.805  53.862  1.00 99.99     0.164 HD
BRANCH 119 121
ATOM    121  CA  ARG    18      69.289  37.781  52.808  1.00  0.00     0.168 C 
BRANCH 121 122
ATOM    122  CB  ARG    18      69.052  36.347  52.332  1.00  0.00     0.035 C 
BRANCH 122 123
ATOM    123  CG  ARG    18      67.650  35.817  52.641  1.00  0.00     0.027 C 
BRANCH 123 124
ATOM    124  CD  ARG    18      66.983  35.303  51.363  1.00  0.00     0.116 C 
BRANCH 124 125
ATOM    125  NE  ARG    18      67.788  35.677  50.194  1.00  0.00    -0.212 N 
ATOM    126  CZ  ARG    18      67.476  36.607  49.288  1.00  0.00     0.666 C 
ATOM    127  NH1 ARG    18      66.316  37.242  49.300  1.00  0.00    -0.235 N 
ATOM    128  NH2 ARG    18      68.411  37.044  48.460  1.00  0.00    -0.235 N 
ATOM    129 2HH1 ARG    18      65.643  36.992  50.000  1.00 99.99     0.174 HD
ATOM    130 1HH1 ARG    18      66.107  37.931  48.616  1.00 99.99     0.174 HD
ATOM    131 2HH2 ARG    18      69.330  36.651  48.509  1.00 99.99     0.174 HD
ATOM    132 1HH2 ARG    18      68.193  37.738  47.785  1.00 99.99     0.174 HD
ATOM    133  HE  ARG    18      68.591  35.105  50.031  1.00 99.99     0.178 HD
ENDBRANCH 124 125
ENDBRANCH 123 124
ENDBRANCH 122 123
ENDBRANCH 121 122
BRANCH 121 134
ATOM    134  C   ARG    18      68.953  38.781  51.686  1.00  0.00     0.206 C 
ATOM    135  O   ARG    18      69.870  39.106  50.896  1.00 99.99    -0.646 OA
ATOM    136  OXT ARG    18      67.752  39.097  51.576  1.00 99.99    -0.646 OA
ENDBRANCH 121 134
ENDBRANCH 119 121
ENDBRANCH 112 117
ENDBRANCH 110 112
ENDBRANCH 107 108
BRANCH 107 137
ATOM    137  CB  HIS    16      67.291  42.674  57.084  1.00  0.00     0.077 C 
BRANCH 137 138
ATOM    138  CG  HIS    16      68.172  43.418  56.071  1.00  0.00     0.057 A 
ATOM    139  CD2 HIS    16      68.488  44.709  56.110  1.00  0.00     0.113 A 
ATOM    140  NE2 HIS    16      69.458  44.932  55.228  1.00  0.00    -0.223 NA
ATOM    141  CE1 HIS    16      69.723  43.778  54.624  1.00  0.00     0.175 A 
ATOM    142  ND1 HIS    16      68.911  42.850  55.121  1.00  0.00    -0.338 N 
ATOM    143  HD1 HIS    16      68.792  41.927  54.755  1.00 99.99     0.167 HD
ENDBRANCH 137 138
ENDBRANCH 107 137
ENDBRANCH 105 107
ENDBRANCH 101 103
ENDBRANCH  99 101
ENDBRANCH  96  97
BRANCH  96 144
ATOM    144  CB  MET    14      59.283  37.900  57.687  1.00  0.00     0.043 C 
BRANCH 144 145
ATOM    145  CG  MET    14      58.056  37.430  56.895  1.00  0.00     0.060 C 
BRANCH 145 146
ATOM    146  SD  MET    14      56.476  37.297  57.811  1.00  0.00    -0.139 SA
ATOM    147  CE  MET    14      55.416  38.423  56.928  1.00  0.00     0.069 C 
ENDBRANCH 145 146
ENDBRANCH 144 145
ENDBRANCH  96 144
ENDBRANCH  93  96
ENDBRANCH  91  92
BRANCH  91 148
ATOM    148  CB  ASN    13      57.367  39.943  54.134  1.00  0.00     0.119 C 
BRANCH 148 149
ATOM    149  CG  ASN    13      57.427  38.710  53.218  1.00  0.00     0.230 C 
ATOM    150  ND2 ASN    13      56.323  38.440  52.551  1.00  0.00    -0.369 N 
ATOM    151 2HD2 ASN    13      55.511  39.000  52.663  1.00 99.99     0.159 HD
ATOM    152 1HD2 ASN    13      56.351  37.645  51.955  1.00 99.99     0.159 HD
ATOM    153  OD1 ASN    13      58.389  37.963  53.114  1.00  0.00    -0.273 OA
ENDBRANCH 148 149
ENDBRANCH  91 148
ENDBRANCH  89  91
ENDBRANCH  86  87
BRANCH  86 154
ATOM    154  CB  LYS    12      61.699  42.526  50.937  1.00  0.00     0.032 C 
BRANCH 154 155
ATOM    155  CG  LYS    12      62.849  41.621  51.391  1.00  0.00     0.004 C 
BRANCH 155 156
ATOM    156  CD  LYS    12      62.715  40.180  50.901  1.00  0.00     0.032 C 
BRANCH 156 157
ATOM    157  CE  LYS    12      64.012  39.429  51.212  1.00  0.00     0.206 C 
BRANCH 157 158
ATOM    158  NZ  LYS    12      65.201  40.215  50.855  1.00  0.00    -0.064 N 
ATOM    159  HZ3 LYS    12      65.965  39.953  51.446  1.00 99.99     0.275 HD
ATOM    160  HZ2 LYS    12      65.003  41.188  50.975  1.00 99.99     0.275 HD
ATOM    161  HZ1 LYS    12      65.440  40.037  49.900  1.00 99.99     0.275 HD
ENDBRANCH 157 158
ENDBRANCH 156 157
ENDBRANCH 155 156
ENDBRANCH 154 155
ENDBRANCH  86 154
ENDBRANCH  84  86
ENDBRANCH  73  82
ENDBRANCH  71  73
ENDBRANCH  64  69
ENDBRANCH  61  64
ENDBRANCH  55  60
ENDBRANCH  53  55
ENDBRANCH  50  51
BRANCH  50 162
ATOM    162  CB  LYS     8      57.714  36.784  43.822  1.00  0.00     0.032 C 
BRANCH 162 163
ATOM    163  CG  LYS     8      57.859  37.181  42.348  1.00  0.00     0.004 C 
BRANCH 163 164
ATOM    164  CD  LYS     8      57.307  38.576  42.049  1.00  0.00     0.032 C 
BRANCH 164 165
ATOM    165  CE  LYS     8      58.326  39.380  41.234  1.00  0.00     0.206 C 
BRANCH 165 166
ATOM    166  NZ  LYS     8      58.634  38.749  39.944  1.00  0.00    -0.064 N 
ATOM    167  HZ3 LYS     8      57.790  38.422  39.516  1.00 99.99     0.275 HD
ATOM    168  HZ1 LYS     8      59.069  39.421  39.343  1.00 99.99     0.275 HD
ATOM    169  HZ2 LYS     8      59.259  37.980  40.083  1.00 99.99     0.275 HD
ENDBRANCH 165 166
ENDBRANCH 164 165
ENDBRANCH 163 164
ENDBRANCH 162 163
ENDBRANCH  50 162
ENDBRANCH  48  50
ENDBRANCH  44  46
ENDBRANCH  42  44
ENDBRANCH  32  40
ENDBRANCH  29  32
ENDBRANCH  27  28
BRANCH  27 170
ATOM    170  CB  LEU     5      68.674  41.702  45.929  1.00  0.00     0.032 C 
BRANCH 170 171
ATOM    171  CG  LEU     5      70.196  41.608  46.091  1.00  0.00     0.002 C 
ATOM    172  CD2 LEU     5      70.632  40.205  46.534  1.00  0.00     0.000 C 
ATOM    173  CD1 LEU     5      70.663  42.636  47.123  1.00  0.00     0.000 C 
ENDBRANCH 170 171
ENDBRANCH  27 170
ENDBRANCH  24  27
ENDBRANCH  22  23
BRANCH  22 174
ATOM    174  CB  LYS     4      66.604  41.335  41.337  1.00  0.00     0.032 C 
BRANCH 174 175
ATOM    175  CG  LYS     4      68.025  41.723  40.903  1.00  0.00     0.004 C 
BRANCH 175 176
ATOM    176  CD  LYS     4      68.945  40.508  40.737  1.00  0.00     0.032 C 
BRANCH 176 177
ATOM    177  CE  LYS     4      68.649  39.779  39.422  1.00  0.00     0.206 C 
BRANCH 177 178
ATOM    178  NZ  LYS     4      68.269  38.370  39.627  1.00  0.00    -0.064 N 
ATOM    179  HZ1 LYS     4      67.275  38.281  39.543  1.00 99.99     0.275 HD
ATOM    180  HZ2 LYS     4      68.705  37.796  38.936  1.00 99.99     0.275 HD
ATOM    181  HZ3 LYS     4      68.546  38.071  40.539  1.00 99.99     0.275 HD
ENDBRANCH 177 178
ENDBRANCH 176 177
ENDBRANCH 175 176
ENDBRANCH 174 175
ENDBRANCH  22 174
ENDBRANCH  20  22
ENDBRANCH  14  18
ENDBRANCH  10  11
BRANCH  10 182
ATOM    182  CB  LEU     2      62.649  39.909  38.628  1.00  0.00     0.032 C 
BRANCH 182 183
ATOM    183  CG  LEU     2      64.084  40.431  38.809  1.00  0.00     0.002 C 
ATOM    184  CD2 LEU     2      64.214  41.816  38.173  1.00  0.00     0.000 C 
ATOM    185  CD1 LEU     2      65.126  39.475  38.219  1.00  0.00     0.000 C 
ENDBRANCH 182 183
ENDBRANCH  10 182
ENDBRANCH   7  10
ENDBRANCH   5   6
BRANCH   5 186
ATOM    186  CB  PHE     1      61.037  43.878  37.153  1.00  0.00     0.064 C 
BRANCH 186 187
ATOM    187  CG  PHE     1      60.760  44.670  35.871  1.00  0.00    -0.044 A 
ATOM    188  CD1 PHE     1      61.756  45.464  35.339  1.00  0.00     0.008 A 
ATOM    189  CE1 PHE     1      61.509  46.220  34.209  1.00  0.00     0.001 A 
ATOM    190  CZ  PHE     1      60.257  46.190  33.607  1.00  0.00     0.000 A 
ATOM    191  CE2 PHE     1      59.244  45.389  34.146  1.00  0.00     0.001 A 
ATOM    192  CD2 PHE     1      59.505  44.620  35.280  1.00  0.00     0.008 A 
ENDBRANCH 186 187
ENDBRANCH   5 186
ENDBRANCH   1   5
TORSDOF 80
ENDMDL
MODEL 4
REMARK VINA RESULT:      -3.6      3.575      9.205
REMARK WARNING: 32 MAX_TORS EXCEEDED!!!
REMARK  80 active torsions:
REMARK  status: ('A' for Active; 'I' for Inactive)
REMARK    1  A    between atoms: N_1  and  CA_2 
REMARK    2  A    between atoms: CA_2  and  C_3 
REMARK    3  A    between atoms: CA_2  and  CB_5 
REMARK       I    between atoms: C_3  and  N_15 
REMARK    4  A    between atoms: CB_5  and  CG_6 
REMARK    5  A    between atoms: N_15  and  CA_16 
REMARK    6  A    between atoms: CA_16  and  C_17 
REMARK    7  A    between atoms: CA_16  and  CB_19 
REMARK       I    between atoms: C_17  and  N_24 
REMARK    8  A    between atoms: CB_19  and  CG_20 
REMARK    9  A    between atoms: CA_25  and  C_26 
REMARK       I    between atoms: C_26  and  N_31 
REMARK   10  A    between atoms: N_31  and  CA_32 
REMARK   11  A    between atoms: CA_32  and  C_33 
REMARK   12  A    between atoms: CA_32  and  CB_35 
REMARK       I    between atoms: C_33  and  N_44 
REMARK   13  A    between atoms: CB_35  and  CG_36 
REMARK   14  A    between atoms: CG_36  and  CD_37 
REMARK   15  A    between atoms: CD_37  and  CE_38 
REMARK   16  A    between atoms: CE_38  and  NZ_39 
REMARK   17  A    between atoms: N_44  and  CA_45 
REMARK   18  A    between atoms: CA_45  and  C_46 
REMARK   19  A    between atoms: CA_45  and  CB_48 
REMARK       I    between atoms: C_46  and  N_53 
REMARK   20  A    between atoms: CB_48  and  CG_49 
REMARK   21  A    between atoms: N_53  and  CA_54 
REMARK   22  A    between atoms: CA_54  and  CB_57 
REMARK   23  A    between atoms: CA_54  and  C_55 
REMARK       I    between atoms: C_55  and  N_65 
REMARK   24  A    between atoms: CB_57  and  CG_58 
REMARK   25  A    between atoms: N_65  and  CA_66 
REMARK   26  A    between atoms: CA_66  and  C_67 
REMARK       I    between atoms: C_67  and  N_71 
REMARK   27  A    between atoms: N_71  and  CA_72 
REMARK   28  A    between atoms: CA_72  and  C_73 
REMARK   29  A    between atoms: CA_72  and  CB_75 
REMARK       I    between atoms: C_73  and  N_84 
REMARK   30  A    between atoms: CB_75  and  CG_76 
REMARK   31  A    between atoms: CG_76  and  CD_77 
REMARK   32  A    between atoms: CD_77  and  CE_78 
REMARK   33  A    between atoms: CE_78  and  NZ_79 
REMARK   34  A    between atoms: N_84  and  CA_85 
REMARK   35  A    between atoms: CA_85  and  CB_88 
REMARK   36  A    between atoms: CA_85  and  C_86 
REMARK       I    between atoms: C_86  and  N_93 
REMARK   37  A    between atoms: CB_88  and  CG1_89 
REMARK   38  A    between atoms: N_93  and  CA_94 
REMARK   39  A    between atoms: CA_94  and  CB_97 
REMARK   40  A    between atoms: CA_94  and  C_95 
REMARK       I    between atoms: C_95  and  N_102 
REMARK   41  A    between atoms: CB_97  and  OG1_98 
REMARK   42  A    between atoms: N_102  and  CA_103 
REMARK   43  A    between atoms: CA_103  and  CB_106 
REMARK   44  A    between atoms: CA_103  and  C_104 
REMARK       I    between atoms: C_104  and  N_115 
REMARK   45  A    between atoms: CB_106  and  CG_107 
REMARK   46  A    between atoms: CG_107  and  CD_108 
REMARK   47  A    between atoms: CD_108  and  CE_109 
REMARK   48  A    between atoms: CE_109  and  NZ_110 
REMARK   49  A    between atoms: N_115  and  CA_116 
REMARK   50  A    between atoms: CA_116  and  C_117 
REMARK   51  A    between atoms: CA_116  and  CB_119 
REMARK       I    between atoms: C_117  and  N_128 
REMARK   52  A    between atoms: CB_119  and  CG_120 
REMARK   53  A    between atoms: CG_120  and  CD_121 
REMARK   54  A    between atoms: CD_121  and  CE_122 
REMARK   55  A    between atoms: CE_122  and  NZ_123 
REMARK   56  A    between atoms: N_128  and  CA_129 
REMARK   57  A    between atoms: CA_129  and  C_130 
REMARK   58  A    between atoms: CA_129  and  CB_132 
REMARK       I    between atoms: C_130  and  N_139 
REMARK   59  A    between atoms: CB_132  and  CG_133 
REMARK       I    between atoms: CG_133  and  ND2_135 
REMARK   60  A    between atoms: N_139  and  CA_140 
REMARK   61  A    between atoms: CA_140  and  C_141 
REMARK   62  A    between atoms: CA_140  and  CB_143 
REMARK       I    between atoms: C_141  and  N_148 
REMARK   63  A    between atoms: CB_143  and  CG_144 
REMARK   64  A    between atoms: CG_144  and  SD_145 
REMARK   65  A    between atoms: N_148  and  CA_149 
REMARK   66  A    between atoms: CA_149  and  C_150 
REMARK       I    between atoms: C_150  and  N_154 
REMARK   67  A    between atoms: N_154  and  CA_155 
REMARK   68  A    between atoms: CA_155  and  C_156 
REMARK   69  A    between atoms: CA_155  and  CB_158 
REMARK       I    between atoms: C_156  and  N_166 
REMARK   70  A    between atoms: CB_158  and  CG_159 
REMARK   71  A    between atoms: N_166  and  CA_167 
REMARK   72  A    between atoms: CA_167  and  CB_170 
REMARK   73  A    between atoms: CA_167  and  C_168 
REMARK       I    between atoms: C_168  and  N_175 
REMARK   74  A    between atoms: CB_170  and  CG1_171 
REMARK   75  A    between atoms: N_175  and  CA_176 
REMARK   76  A    between atoms: CA_176  and  CB_179 
REMARK   77  A    between atoms: CA_176  and  C_177 
REMARK   78  A    between atoms: CB_179  and  CG_180 
REMARK   79  A    between atoms: CG_180  and  CD_181 
REMARK   80  A    between atoms: CD_181  and  NE_182 
REMARK       I    between atoms: NE_182  and  CZ_183 
REMARK       I    between atoms: CZ_183  and  NH1_184 
ROOT
ATOM      1  N   PHE     1      70.271  45.527  40.024  1.00  0.00    -0.057 N 
ATOM      2  H1  PHE     1      70.391  46.196  40.750  1.00 99.99     0.276 HD
ATOM      3  H2  PHE     1      69.961  44.665  40.425  1.00 99.99     0.276 HD
ATOM      4  H3  PHE     1      71.153  45.290  39.617  1.00 99.99     0.276 HD
ENDROOT
BRANCH   1   5
ATOM      5  CA  PHE     1      69.305  46.018  38.989  1.00  0.00     0.259 C 
BRANCH   5   6
ATOM      6  C   PHE     1      68.833  45.078  37.840  1.00  0.00     0.259 C 
ATOM      7  N   LEU     2      67.926  45.536  36.971  1.00  0.00    -0.338 N 
ATOM      8  H   LEU     2      67.666  46.498  36.917  1.00 99.99     0.164 HD
ATOM      9  O   PHE     1      69.454  44.040  37.603  1.00  0.00    -0.271 OA
BRANCH   7  10
ATOM     10  CA  LEU     2      67.296  44.652  35.962  1.00  0.00     0.160 C 
BRANCH  10  11
ATOM     11  C   LEU     2      66.233  43.659  36.505  1.00  0.00     0.254 C 
ATOM     12  N   PRO     3      64.910  43.910  36.377  1.00  0.00    -0.312 N 
ATOM     13  CD  PRO     3      64.273  45.213  36.084  1.00  0.00     0.105 C 
ATOM     14  CA  PRO     3      63.872  42.939  36.772  1.00  0.00     0.163 C 
ATOM     15  CG  PRO     3      62.857  45.086  36.645  1.00  0.00     0.027 C 
ATOM     16  CB  PRO     3      62.537  43.609  36.443  1.00  0.00     0.034 C 
ATOM     17  O   LEU     2      66.645  42.564  36.880  1.00  0.00    -0.270 OA
BRANCH  14  18
ATOM     18  C   PRO     3      64.001  41.585  36.055  1.00  0.00     0.251 C 
ATOM     19  O   PRO     3      63.896  41.558  34.832  1.00  0.00    -0.271 OA
ATOM     20  N   LYS     4      64.028  40.480  36.810  1.00  0.00    -0.338 N 
ATOM     21  H   LYS     4      64.053  40.526  37.809  1.00 99.99     0.164 HD
BRANCH  20  22
ATOM     22  CA  LYS     4      64.090  39.110  36.260  1.00  0.00     0.159 C 
BRANCH  22  23
ATOM     23  C   LYS     4      62.701  38.568  35.866  1.00  0.00     0.251 C 
ATOM     24  N   LEU     5      61.899  38.179  36.860  1.00  0.00    -0.338 N 
ATOM     25  H   LEU     5      62.222  38.121  37.810  1.00 99.99     0.164 HD
ATOM     26  O   LYS     4      62.333  38.631  34.693  1.00  0.00    -0.271 OA
BRANCH  24  27
ATOM     27  CA  LEU     5      60.507  37.747  36.638  1.00  0.00     0.159 C 
BRANCH  27  28
ATOM     28  C   LEU     5      59.474  38.825  36.981  1.00  0.00     0.251 C 
ATOM     29  N   PHE     6      58.923  38.764  38.197  1.00  0.00    -0.337 N 
ATOM     30  H   PHE     6      59.103  37.998  38.823  1.00 99.99     0.164 HD
ATOM     31  O   LEU     5      59.344  39.793  36.231  1.00  0.00    -0.271 OA
BRANCH  29  32
ATOM     32  CA  PHE     6      57.979  39.777  38.705  1.00  0.00     0.164 C 
BRANCH  32  33
ATOM     33  CB  PHE     6      56.877  39.099  39.527  1.00  0.00     0.056 C 
BRANCH  33  34
ATOM     34  CG  PHE     6      56.215  37.933  38.766  1.00  0.00    -0.044 A 
ATOM     35  CD1 PHE     6      55.873  38.081  37.436  1.00  0.00     0.008 A 
ATOM     36  CE1 PHE     6      55.278  37.035  36.746  1.00  0.00     0.001 A 
ATOM     37  CZ  PHE     6      55.029  35.823  37.397  1.00  0.00     0.000 A 
ATOM     38  CE2 PHE     6      55.384  35.677  38.740  1.00  0.00     0.001 A 
ATOM     39  CD2 PHE     6      55.974  36.738  39.420  1.00  0.00     0.008 A 
ENDBRANCH  33  34
ENDBRANCH  32  33
BRANCH  32  40
ATOM     40  C   PHE     6      58.709  40.867  39.509  1.00  0.00     0.251 C 
ATOM     41  O   PHE     6      58.274  41.175  40.615  1.00  0.00    -0.271 OA
ATOM     42  N   ALA     7      59.588  41.618  38.843  1.00  0.00    -0.338 N 
ATOM     43  H   ALA     7      59.835  41.416  37.885  1.00 99.99     0.164 HD
BRANCH  42  44
ATOM     44  CA  ALA     7      60.310  42.756  39.435  1.00  0.00     0.159 C 
ATOM     45  CB  ALA     7      59.505  44.048  39.260  1.00  0.00     0.034 C 
BRANCH  44  46
ATOM     46  C   ALA     7      60.661  42.550  40.920  1.00  0.00     0.251 C 
ATOM     47  O   ALA     7      60.328  43.414  41.729  1.00  0.00    -0.271 OA
ATOM     48  N   LYS     8      61.462  41.528  41.238  1.00  0.00    -0.338 N 
ATOM     49  H   LYS     8      61.724  40.823  40.568  1.00 99.99     0.164 HD
BRANCH  48  50
ATOM     50  CA  LYS     8      61.948  41.290  42.611  1.00  0.00     0.159 C 
BRANCH  50  51
ATOM     51  C   LYS     8      60.800  40.959  43.587  1.00  0.00     0.251 C 
ATOM     52  O   LYS     8      60.307  39.833  43.578  1.00  0.00    -0.271 OA
ATOM     53  N   ILE     9      60.294  41.969  44.298  1.00  0.00    -0.338 N 
ATOM     54  H   ILE     9      60.666  42.903  44.219  1.00 99.99     0.164 HD
BRANCH  53  55
ATOM     55  CA  ILE     9      59.183  41.817  45.259  1.00  0.00     0.159 C 
BRANCH  55  56
ATOM     56  CB  ILE     9      58.850  43.165  45.941  1.00  0.00     0.029 C 
ATOM     57  CG2 ILE     9      58.767  44.310  44.918  1.00  0.00     0.002 C 
BRANCH  56  58
ATOM     58  CG1 ILE     9      57.520  43.048  46.708  1.00  0.00     0.002 C 
ATOM     59  CD  ILE     9      57.122  44.309  47.487  1.00  0.00     0.000 C 
ENDBRANCH  56  58
ENDBRANCH  55  56
BRANCH  55  60
ATOM     60  C   ILE     9      57.962  41.152  44.587  1.00  0.00     0.251 C 
ATOM     61  N   THR    10      57.506  40.027  45.140  1.00  0.00    -0.336 N 
ATOM     62  H   THR    10      57.968  39.590  45.924  1.00 99.99     0.164 HD
ATOM     63  O   ILE     9      57.356  41.752  43.702  1.00  0.00    -0.271 OA
BRANCH  61  64
ATOM     64  CA  THR    10      56.346  39.275  44.626  1.00  0.00     0.186 C 
BRANCH  64  65
ATOM     65  CB  THR    10      56.638  37.766  44.549  1.00  0.00     0.140 C 
ATOM     66  CG2 THR    10      55.991  37.112  43.320  1.00  0.00     0.034 C 
BRANCH  65  67
ATOM     67  OG1 THR    10      58.056  37.576  44.466  1.00  0.00    -0.382 OA
ATOM     68  HG1 THR    10      58.345  36.829  45.069  1.00 99.99     0.210 HD
ENDBRANCH  65  67
ENDBRANCH  64  65
BRANCH  64  69
ATOM     69  C   THR    10      55.079  39.571  45.451  1.00  0.00     0.253 C 
ATOM     70  O   THR    10      54.496  40.633  45.248  1.00  0.00    -0.270 OA
ATOM     71  N   LYS    11      54.790  38.770  46.482  1.00  0.00    -0.337 N 
ATOM     72  H   LYS    11      55.310  37.931  46.687  1.00 99.99     0.164 HD
BRANCH  71  73
ATOM     73  CA  LYS    11      53.658  39.036  47.390  1.00  0.00     0.159 C 
BRANCH  73  74
ATOM     74  CB  LYS    11      52.673  37.864  47.473  1.00  0.00     0.032 C 
BRANCH  74  75
ATOM     75  CG  LYS    11      53.184  36.641  46.707  1.00  0.00     0.004 C 
BRANCH  75  76
ATOM     76  CD  LYS    11      53.338  35.439  47.639  1.00  0.00     0.032 C 
BRANCH  76  77
ATOM     77  CE  LYS    11      54.176  34.341  46.977  1.00  0.00     0.206 C 
BRANCH  77  78
ATOM     78  NZ  LYS    11      54.847  34.837  45.770  1.00  0.00    -0.064 N 
ATOM     79  HZ3 LYS    11      55.835  34.875  45.930  1.00 99.99     0.275 HD
ATOM     80  HZ2 LYS    11      54.513  35.754  45.551  1.00 99.99     0.275 HD
ATOM     81  HZ1 LYS    11      54.659  34.219  45.005  1.00 99.99     0.275 HD
ENDBRANCH  77  78
ENDBRANCH  76  77
ENDBRANCH  75  76
ENDBRANCH  74  75
ENDBRANCH  73  74
BRANCH  73  82
ATOM     82  C   LYS    11      54.087  39.452  48.809  1.00  0.00     0.251 C 
ATOM     83  O   LYS    11      54.918  40.349  48.938  1.00  0.00    -0.271 OA
ATOM     84  N   LYS    12      53.675  38.698  49.830  1.00  0.00    -0.338 N 
ATOM     85  H   LYS    12      53.030  37.928  49.708  1.00 99.99     0.164 HD
BRANCH  84  86
ATOM     86  CA  LYS    12      54.080  38.952  51.223  1.00  0.00     0.159 C 
BRANCH  86  87
ATOM     87  C   LYS    12      55.167  37.959  51.682  1.00  0.00     0.251 C 
ATOM     88  O   LYS    12      54.949  37.224  52.642  1.00  0.00    -0.271 OA
ATOM     89  N   ASN    13      56.373  38.092  51.131  1.00  0.00    -0.337 N 
ATOM     90  H   ASN    13      56.531  38.741  50.372  1.00 99.99     0.164 HD
BRANCH  89  91
ATOM     91  CA  ASN    13      57.524  37.237  51.471  1.00  0.00     0.169 C 
BRANCH  91  92
ATOM     92  C   ASN    13      58.500  37.948  52.436  1.00  0.00     0.251 C 
ATOM     93  N   MET    14      59.788  37.917  52.091  1.00  0.00    -0.337 N 
ATOM     94  H   MET    14      60.092  37.385  51.290  1.00 99.99     0.164 HD
ATOM     95  O   ASN    13      58.067  38.692  53.313  1.00  0.00    -0.271 OA
BRANCH  93  96
ATOM     96  CA  MET    14      60.896  38.589  52.801  1.00  0.00     0.160 C 
BRANCH  96  97
ATOM     97  C   MET    14      62.063  39.064  51.904  1.00  0.00     0.251 C 
ATOM     98  O   MET    14      62.883  39.871  52.340  1.00  0.00    -0.271 OA
ATOM     99  N   ALA    15      62.158  38.526  50.686  1.00  0.00    -0.338 N 
ATOM    100  H   ALA    15      61.706  37.654  50.471  1.00 99.99     0.164 HD
BRANCH  99 101
ATOM    101  CA  ALA    15      63.097  38.995  49.650  1.00  0.00     0.159 C 
ATOM    102  CB  ALA    15      62.954  38.127  48.396  1.00  0.00     0.034 C 
BRANCH 101 103
ATOM    103  C   ALA    15      62.928  40.483  49.277  1.00  0.00     0.251 C 
ATOM    104  O   ALA    15      63.871  41.264  49.384  1.00  0.00    -0.271 OA
ATOM    105  N   HIS    16      61.750  40.835  48.760  1.00  0.00    -0.337 N 
ATOM    106  H   HIS    16      61.097  40.126  48.467  1.00 99.99     0.164 HD
BRANCH 105 107
ATOM    107  CA  HIS    16      61.347  42.207  48.398  1.00  0.00     0.165 C 
BRANCH 107 108
ATOM    108  C   HIS    16      62.462  43.023  47.705  1.00  0.00     0.251 C 
ATOM    109  O   HIS    16      62.598  42.974  46.484  1.00  0.00    -0.271 OA
ATOM    110  N   ILE    17      63.207  43.810  48.482  1.00  0.00    -0.338 N 
ATOM    111  H   ILE    17      62.962  43.945  49.446  1.00 99.99     0.164 HD
BRANCH 110 112
ATOM    112  CA  ILE    17      64.275  44.710  47.981  1.00  0.00     0.159 C 
BRANCH 112 113
ATOM    113  CB  ILE    17      64.863  45.495  49.186  1.00  0.00     0.029 C 
ATOM    114  CG2 ILE    17      66.233  46.141  48.894  1.00  0.00     0.002 C 
BRANCH 113 115
ATOM    115  CG1 ILE    17      63.860  46.570  49.643  1.00  0.00     0.002 C 
ATOM    116  CD  ILE    17      63.076  46.217  50.917  1.00  0.00     0.000 C 
ENDBRANCH 113 115
ENDBRANCH 112 113
BRANCH 112 117
ATOM    117  C   ILE    17      65.345  43.999  47.120  1.00  0.00     0.251 C 
ATOM    118  O   ILE    17      65.622  44.412  45.994  1.00  0.00    -0.271 OA
ATOM    119  N   ARG    18      65.879  42.881  47.608  1.00  0.00    -0.336 N 
ATOM    120  H   ARG    18      65.419  42.348  48.315  1.00 99.99     0.164 HD
BRANCH 119 121
ATOM    121  CA  ARG    18      67.054  42.218  46.998  1.00  0.00     0.168 C 
BRANCH 121 122
ATOM    122  CB  ARG    18      68.247  43.138  47.262  1.00  0.00     0.035 C 
BRANCH 122 123
ATOM    123  CG  ARG    18      69.115  43.393  46.028  1.00  0.00     0.027 C 
BRANCH 123 124
ATOM    124  CD  ARG    18      70.570  43.019  46.315  1.00  0.00     0.116 C 
BRANCH 124 125
ATOM    125  NE  ARG    18      70.650  41.622  46.759  1.00  0.00    -0.212 N 
ATOM    126  CZ  ARG    18      70.822  40.555  45.976  1.00  0.00     0.666 C 
ATOM    127  NH1 ARG    18      70.841  40.644  44.657  1.00  0.00    -0.235 N 
ATOM    128  NH2 ARG    18      71.164  39.400  46.522  1.00  0.00    -0.235 N 
ATOM    129 2HH1 ARG    18      70.695  41.544  44.237  1.00 99.99     0.174 HD
ATOM    130 1HH1 ARG    18      70.973  39.836  44.095  1.00 99.99     0.174 HD
ATOM    131 2HH2 ARG    18      71.262  39.338  47.516  1.00 99.99     0.174 HD
ATOM    132 1HH2 ARG    18      71.300  38.599  45.950  1.00 99.99     0.174 HD
ATOM    133  HE  ARG    18      70.461  41.474  47.730  1.00 99.99     0.178 HD
ENDBRANCH 124 125
ENDBRANCH 123 124
ENDBRANCH 122 123
ENDBRANCH 121 122
BRANCH 121 134
ATOM    134  C   ARG    18      67.315  40.818  47.581  1.00  0.00     0.206 C 
ATOM    135  O   ARG    18      68.047  40.732  48.596  1.00 99.99    -0.646 OA
ATOM    136  OXT ARG    18      66.673  39.881  47.066  1.00 99.99    -0.646 OA
ENDBRANCH 121 134
ENDBRANCH 119 121
ENDBRANCH 112 117
ENDBRANCH 110 112
ENDBRANCH 107 108
BRANCH 107 137
ATOM    137  CB  HIS    16      60.860  42.893  49.688  1.00  0.00     0.077 C 
BRANCH 137 138
ATOM    138  CG  HIS    16      59.721  42.157  50.409  1.00  0.00     0.057 A 
ATOM    139  CD2 HIS    16      59.596  42.011  51.725  1.00  0.00     0.113 A 
ATOM    140  NE2 HIS    16      58.376  41.549  51.982  1.00  0.00    -0.223 NA
ATOM    141  CE1 HIS    16      57.755  41.385  50.818  1.00  0.00     0.175 A 
ATOM    142  ND1 HIS    16      58.593  41.732  49.846  1.00  0.00    -0.338 N 
ATOM    143  HD1 HIS    16      58.445  41.577  48.868  1.00 99.99     0.167 HD
ENDBRANCH 137 138
ENDBRANCH 107 137
ENDBRANCH 105 107
ENDBRANCH 101 103
ENDBRANCH  99 101
ENDBRANCH  96  97
BRANCH  96 144
ATOM    144  CB  MET    14      61.315  37.631  53.929  1.00  0.00     0.043 C 
BRANCH 144 145
ATOM    145  CG  MET    14      61.666  38.195  55.312  1.00  0.00     0.060 C 
BRANCH 145 146
ATOM    146  SD  MET    14      60.490  39.394  56.044  1.00  0.00    -0.139 SA
ATOM    147  CE  MET    14      59.582  38.394  57.204  1.00  0.00     0.069 C 
ENDBRANCH 145 146
ENDBRANCH 144 145
ENDBRANCH  96 144
ENDBRANCH  93  96
ENDBRANCH  91  92
BRANCH  91 148
ATOM    148  CB  ASN    13      58.247  36.783  50.190  1.00  0.00     0.119 C 
BRANCH 148 149
ATOM    149  CG  ASN    13      58.508  37.885  49.151  1.00  0.00     0.230 C 
ATOM    150  ND2 ASN    13      57.739  37.855  48.081  1.00  0.00    -0.369 N 
ATOM    151 2HD2 ASN    13      57.054  37.145  47.967  1.00 99.99     0.159 HD
ATOM    152 1HD2 ASN    13      57.900  38.563  47.402  1.00 99.99     0.159 HD
ATOM    153  OD1 ASN    13      59.390  38.726  49.232  1.00  0.00    -0.273 OA
ENDBRANCH 148 149
ENDBRANCH  91 148
ENDBRANCH  89  91
ENDBRANCH  86  87
BRANCH  86 154
ATOM    154  CB  LYS    12      52.872  38.914  52.173  1.00  0.00     0.032 C 
BRANCH 154 155
ATOM    155  CG  LYS    12      51.704  38.152  51.537  1.00  0.00     0.004 C 
BRANCH 155 156
ATOM    156  CD  LYS    12      50.574  39.064  51.061  1.00  0.00     0.032 C 
BRANCH 156 157
ATOM    157  CE  LYS    12      49.732  38.309  50.030  1.00  0.00     0.206 C 
BRANCH 157 158
ATOM    158  NZ  LYS    12      49.262  37.016  50.545  1.00  0.00    -0.064 N 
ATOM    159  HZ3 LYS    12      49.307  36.330  49.818  1.00 99.99     0.275 HD
ATOM    160  HZ2 LYS    12      48.318  37.109  50.861  1.00 99.99     0.275 HD
ATOM    161  HZ1 LYS    12      49.844  36.733  51.308  1.00 99.99     0.275 HD
ENDBRANCH 157 158
ENDBRANCH 156 157
ENDBRANCH 155 156
ENDBRANCH 154 155
ENDBRANCH  86 154
ENDBRANCH  84  86
ENDBRANCH  73  82
ENDBRANCH  71  73
ENDBRANCH  64  69
ENDBRANCH  61  64
ENDBRANCH  55  60
ENDBRANCH  53  55
ENDBRANCH  50  51
BRANCH  50 162
ATOM    162  CB  LYS     8      62.780  42.480  43.113  1.00  0.00     0.032 C 
BRANCH 162 163
ATOM    163  CG  LYS     8      64.270  42.313  42.788  1.00  0.00     0.004 C 
BRANCH 163 164
ATOM    164  CD  LYS     8      65.069  41.713  43.945  1.00  0.00     0.032 C 
BRANCH 164 165
ATOM    165  CE  LYS     8      64.444  40.382  44.380  1.00  0.00     0.206 C 
BRANCH 165 166
ATOM    166  NZ  LYS     8      64.005  40.400  45.781  1.00  0.00    -0.064 N 
ATOM    167  HZ3 LYS     8      63.820  39.467  46.091  1.00 99.99     0.275 HD
ATOM    168  HZ1 LYS     8      64.727  40.798  46.349  1.00 99.99     0.275 HD
ATOM    169  HZ2 LYS     8      63.176  40.954  45.868  1.00 99.99     0.275 HD
ENDBRANCH 165 166
ENDBRANCH 164 165
ENDBRANCH 163 164
ENDBRANCH 162 163
ENDBRANCH  50 162
ENDBRANCH  48  50
ENDBRANCH  44  46
ENDBRANCH  42  44
ENDBRANCH  32  40
ENDBRANCH  29  32
ENDBRANCH  27  28
BRANCH  27 170
ATOM    170  CB  LEU     5      60.199  36.434  37.373  1.00  0.00     0.032 C 
BRANCH 170 171
ATOM    171  CG  LEU     5      58.978  35.706  36.798  1.00  0.00     0.002 C 
ATOM    172  CD2 LEU     5      58.573  34.508  37.664  1.00  0.00     0.000 C 
ATOM    173  CD1 LEU     5      59.293  35.226  35.380  1.00  0.00     0.000 C 
ENDBRANCH 170 171
ENDBRANCH  27 170
ENDBRANCH  24  27
ENDBRANCH  22  23
BRANCH  22 174
ATOM    174  CB  LYS     4      64.795  38.173  37.256  1.00  0.00     0.032 C 
BRANCH 174 175
ATOM    175  CG  LYS     4      65.245  38.889  38.537  1.00  0.00     0.004 C 
BRANCH 175 176
ATOM    176  CD  LYS     4      66.198  38.040  39.386  1.00  0.00     0.032 C 
BRANCH 176 177
ATOM    177  CE  LYS     4      67.635  38.561  39.275  1.00  0.00     0.206 C 
BRANCH 177 178
ATOM    178  NZ  LYS     4      67.856  39.788  40.062  1.00  0.00    -0.064 N 
ATOM    179  HZ1 LYS     4      67.090  40.416  39.916  1.00 99.99     0.275 HD
ATOM    180  HZ2 LYS     4      67.911  39.563  41.034  1.00 99.99     0.275 HD
ATOM    181  HZ3 LYS     4      68.702  40.233  39.769  1.00 99.99     0.275 HD
ENDBRANCH 177 178
ENDBRANCH 176 177
ENDBRANCH 175 176
ENDBRANCH 174 175
ENDBRANCH  22 174
ENDBRANCH  20  22
ENDBRANCH  14  18
ENDBRANCH  10  11
BRANCH  10 182
ATOM    182  CB  LEU     2      68.362  43.987  35.073  1.00  0.00     0.032 C 
BRANCH 182 183
ATOM    183  CG  LEU     2      68.032  43.969  33.571  1.00  0.00     0.002 C 
ATOM    184  CD2 LEU     2      67.125  45.152  33.227  1.00  0.00     0.000 C 
ATOM    185  CD1 LEU     2      67.375  42.652  33.140  1.00  0.00     0.000 C 
ENDBRANCH 182 183
ENDBRANCH  10 182
ENDBRANCH   7  10
ENDBRANCH   5   6
BRANCH   5 186
ATOM    186  CB  PHE     1      69.827  47.299  38.332  1.00  0.00     0.064 C 
BRANCH 186 187
ATOM    187  CG  PHE     1      68.828  48.458  38.385  1.00  0.00    -0.044 A 
ATOM    188  CD1 PHE     1      67.970  48.562  39.462  1.00  0.00     0.008 A 
ATOM    189  CE1 PHE     1      67.032  49.575  39.504  1.00  0.00     0.001 A 
ATOM    190  CZ  PHE     1      66.942  50.490  38.462  1.00  0.00     0.000 A 
ATOM    191  CE2 PHE     1      67.809  50.386  37.368  1.00  0.00     0.001 A 
ATOM    192  CD2 PHE     1      68.760  49.367  37.338  1.00  0.00     0.008 A 
ENDBRANCH 186 187
ENDBRANCH   5 186
ENDBRANCH   1   5
TORSDOF 80
ENDMDL
MODEL 5
REMARK VINA RESULT:      -3.5      3.201      8.651
REMARK WARNING: 32 MAX_TORS EXCEEDED!!!
REMARK  80 active torsions:
REMARK  status: ('A' for Active; 'I' for Inactive)
REMARK    1  A    between atoms: N_1  and  CA_2 
REMARK    2  A    between atoms: CA_2  and  C_3 
REMARK    3  A    between atoms: CA_2  and  CB_5 
REMARK       I    between atoms: C_3  and  N_15 
REMARK    4  A    between atoms: CB_5  and  CG_6 
REMARK    5  A    between atoms: N_15  and  CA_16 
REMARK    6  A    between atoms: CA_16  and  C_17 
REMARK    7  A    between atoms: CA_16  and  CB_19 
REMARK       I    between atoms: C_17  and  N_24 
REMARK    8  A    between atoms: CB_19  and  CG_20 
REMARK    9  A    between atoms: CA_25  and  C_26 
REMARK       I    between atoms: C_26  and  N_31 
REMARK   10  A    between atoms: N_31  and  CA_32 
REMARK   11  A    between atoms: CA_32  and  C_33 
REMARK   12  A    between atoms: CA_32  and  CB_35 
REMARK       I    between atoms: C_33  and  N_44 
REMARK   13  A    between atoms: CB_35  and  CG_36 
REMARK   14  A    between atoms: CG_36  and  CD_37 
REMARK   15  A    between atoms: CD_37  and  CE_38 
REMARK   16  A    between atoms: CE_38  and  NZ_39 
REMARK   17  A    between atoms: N_44  and  CA_45 
REMARK   18  A    between atoms: CA_45  and  C_46 
REMARK   19  A    between atoms: CA_45  and  CB_48 
REMARK       I    between atoms: C_46  and  N_53 
REMARK   20  A    between atoms: CB_48  and  CG_49 
REMARK   21  A    between atoms: N_53  and  CA_54 
REMARK   22  A    between atoms: CA_54  and  CB_57 
REMARK   23  A    between atoms: CA_54  and  C_55 
REMARK       I    between atoms: C_55  and  N_65 
REMARK   24  A    between atoms: CB_57  and  CG_58 
REMARK   25  A    between atoms: N_65  and  CA_66 
REMARK   26  A    between atoms: CA_66  and  C_67 
REMARK       I    between atoms: C_67  and  N_71 
REMARK   27  A    between atoms: N_71  and  CA_72 
REMARK   28  A    between atoms: CA_72  and  C_73 
REMARK   29  A    between atoms: CA_72  and  CB_75 
REMARK       I    between atoms: C_73  and  N_84 
REMARK   30  A    between atoms: CB_75  and  CG_76 
REMARK   31  A    between atoms: CG_76  and  CD_77 
REMARK   32  A    between atoms: CD_77  and  CE_78 
REMARK   33  A    between atoms: CE_78  and  NZ_79 
REMARK   34  A    between atoms: N_84  and  CA_85 
REMARK   35  A    between atoms: CA_85  and  CB_88 
REMARK   36  A    between atoms: CA_85  and  C_86 
REMARK       I    between atoms: C_86  and  N_93 
REMARK   37  A    between atoms: CB_88  and  CG1_89 
REMARK   38  A    between atoms: N_93  and  CA_94 
REMARK   39  A    between atoms: CA_94  and  CB_97 
REMARK   40  A    between atoms: CA_94  and  C_95 
REMARK       I    between atoms: C_95  and  N_102 
REMARK   41  A    between atoms: CB_97  and  OG1_98 
REMARK   42  A    between atoms: N_102  and  CA_103 
REMARK   43  A    between atoms: CA_103  and  CB_106 
REMARK   44  A    between atoms: CA_103  and  C_104 
REMARK       I    between atoms: C_104  and  N_115 
REMARK   45  A    between atoms: CB_106  and  CG_107 
REMARK   46  A    between atoms: CG_107  and  CD_108 
REMARK   47  A    between atoms: CD_108  and  CE_109 
REMARK   48  A    between atoms: CE_109  and  NZ_110 
REMARK   49  A    between atoms: N_115  and  CA_116 
REMARK   50  A    between atoms: CA_116  and  C_117 
REMARK   51  A    between atoms: CA_116  and  CB_119 
REMARK       I    between atoms: C_117  and  N_128 
REMARK   52  A    between atoms: CB_119  and  CG_120 
REMARK   53  A    between atoms: CG_120  and  CD_121 
REMARK   54  A    between atoms: CD_121  and  CE_122 
REMARK   55  A    between atoms: CE_122  and  NZ_123 
REMARK   56  A    between atoms: N_128  and  CA_129 
REMARK   57  A    between atoms: CA_129  and  C_130 
REMARK   58  A    between atoms: CA_129  and  CB_132 
REMARK       I    between atoms: C_130  and  N_139 
REMARK   59  A    between atoms: CB_132  and  CG_133 
REMARK       I    between atoms: CG_133  and  ND2_135 
REMARK   60  A    between atoms: N_139  and  CA_140 
REMARK   61  A    between atoms: CA_140  and  C_141 
REMARK   62  A    between atoms: CA_140  and  CB_143 
REMARK       I    between atoms: C_141  and  N_148 
REMARK   63  A    between atoms: CB_143  and  CG_144 
REMARK   64  A    between atoms: CG_144  and  SD_145 
REMARK   65  A    between atoms: N_148  and  CA_149 
REMARK   66  A    between atoms: CA_149  and  C_150 
REMARK       I    between atoms: C_150  and  N_154 
REMARK   67  A    between atoms: N_154  and  CA_155 
REMARK   68  A    between atoms: CA_155  and  C_156 
REMARK   69  A    between atoms: CA_155  and  CB_158 
REMARK       I    between atoms: C_156  and  N_166 
REMARK   70  A    between atoms: CB_158  and  CG_159 
REMARK   71  A    between atoms: N_166  and  CA_167 
REMARK   72  A    between atoms: CA_167  and  CB_170 
REMARK   73  A    between atoms: CA_167  and  C_168 
REMARK       I    between atoms: C_168  and  N_175 
REMARK   74  A    between atoms: CB_170  and  CG1_171 
REMARK   75  A    between atoms: N_175  and  CA_176 
REMARK   76  A    between atoms: CA_176  and  CB_179 
REMARK   77  A    between atoms: CA_176  and  C_177 
REMARK   78  A    between atoms: CB_179  and  CG_180 
REMARK   79  A    between atoms: CG_180  and  CD_181 
REMARK   80  A    between atoms: CD_181  and  NE_182 
REMARK       I    between atoms: NE_182  and  CZ_183 
REMARK       I    between atoms: CZ_183  and  NH1_184 
ROOT
ATOM      1  N   PHE     1      70.290  45.665  39.791  1.00  0.00    -0.057 N 
ATOM      2  H1  PHE     1      70.981  46.378  39.864  1.00 99.99     0.276 HD
ATOM      3  H2  PHE     1      69.881  45.516  40.691  1.00 99.99     0.276 HD
ATOM      4  H3  PHE     1      70.717  44.784  39.581  1.00 99.99     0.276 HD
ENDROOT
BRANCH   1   5
ATOM      5  CA  PHE     1      69.248  46.023  38.777  1.00  0.00     0.259 C 
BRANCH   5   6
ATOM      6  C   PHE     1      68.799  44.986  37.705  1.00  0.00     0.259 C 
ATOM      7  N   LEU     2      67.902  45.362  36.787  1.00  0.00    -0.338 N 
ATOM      8  H   LEU     2      67.636  46.314  36.649  1.00 99.99     0.164 HD
ATOM      9  O   PHE     1      69.430  43.937  37.566  1.00  0.00    -0.271 OA
BRANCH   7  10
ATOM     10  CA  LEU     2      67.293  44.391  35.848  1.00  0.00     0.160 C 
BRANCH  10  11
ATOM     11  C   LEU     2      66.205  43.461  36.450  1.00  0.00     0.254 C 
ATOM     12  N   PRO     3      64.891  43.761  36.346  1.00  0.00    -0.312 N 
ATOM     13  CD  PRO     3      64.299  45.078  36.023  1.00  0.00     0.105 C 
ATOM     14  CA  PRO     3      63.825  42.846  36.799  1.00  0.00     0.163 C 
ATOM     15  CG  PRO     3      62.893  45.028  36.622  1.00  0.00     0.027 C 
ATOM     16  CB  PRO     3      62.510  43.558  36.479  1.00  0.00     0.034 C 
ATOM     17  O   LEU     2      66.583  42.363  36.852  1.00  0.00    -0.270 OA
BRANCH  14  18
ATOM     18  C   PRO     3      63.882  41.465  36.125  1.00  0.00     0.251 C 
ATOM     19  O   PRO     3      63.690  41.396  34.915  1.00  0.00    -0.271 OA
ATOM     20  N   LYS     4      63.946  40.388  36.918  1.00  0.00    -0.338 N 
ATOM     21  H   LYS     4      64.043  40.470  37.910  1.00 99.99     0.164 HD
BRANCH  20  22
ATOM     22  CA  LYS     4      63.948  38.999  36.416  1.00  0.00     0.159 C 
BRANCH  22  23
ATOM     23  C   LYS     4      62.524  38.437  36.228  1.00  0.00     0.251 C 
ATOM     24  N   LEU     5      61.731  38.422  37.303  1.00  0.00    -0.338 N 
ATOM     25  H   LEU     5      62.077  38.647  38.219  1.00 99.99     0.164 HD
ATOM     26  O   LYS     4      62.127  38.148  35.099  1.00  0.00    -0.271 OA
BRANCH  24  27
ATOM     27  CA  LEU     5      60.315  38.019  37.243  1.00  0.00     0.159 C 
BRANCH  27  28
ATOM     28  C   LEU     5      59.348  39.131  37.660  1.00  0.00     0.251 C 
ATOM     29  N   PHE     6      58.800  39.027  38.875  1.00  0.00    -0.337 N 
ATOM     30  H   PHE     6      58.939  38.215  39.451  1.00 99.99     0.164 HD
ATOM     31  O   LEU     5      59.270  40.149  36.972  1.00  0.00    -0.271 OA
BRANCH  29  32
ATOM     32  CA  PHE     6      57.919  40.059  39.452  1.00  0.00     0.164 C 
BRANCH  32  33
ATOM     33  CB  PHE     6      56.843  39.400  40.323  1.00  0.00     0.056 C 
BRANCH  33  34
ATOM     34  CG  PHE     6      56.915  37.861  40.275  1.00  0.00    -0.044 A 
ATOM     35  CD1 PHE     6      57.825  37.188  41.066  1.00  0.00     0.008 A 
ATOM     36  CE1 PHE     6      57.895  35.802  41.028  1.00  0.00     0.001 A 
ATOM     37  CZ  PHE     6      57.036  35.084  40.190  1.00  0.00     0.000 A 
ATOM     38  CE2 PHE     6      56.113  35.771  39.398  1.00  0.00     0.001 A 
ATOM     39  CD2 PHE     6      56.061  37.161  39.443  1.00  0.00     0.008 A 
ENDBRANCH  33  34
ENDBRANCH  32  33
BRANCH  32  40
ATOM     40  C   PHE     6      58.727  41.110  40.233  1.00  0.00     0.251 C 
ATOM     41  O   PHE     6      58.461  41.300  41.417  1.00  0.00    -0.271 OA
ATOM     42  N   ALA     7      59.464  41.959  39.513  1.00  0.00    -0.338 N 
ATOM     43  H   ALA     7      59.565  41.852  38.514  1.00 99.99     0.164 HD
BRANCH  42  44
ATOM     44  CA  ALA     7      60.229  43.075  40.091  1.00  0.00     0.159 C 
ATOM     45  CB  ALA     7      59.413  44.370  40.028  1.00  0.00     0.034 C 
BRANCH  44  46
ATOM     46  C   ALA     7      60.694  42.813  41.536  1.00  0.00     0.251 C 
ATOM     47  O   ALA     7      60.359  43.606  42.415  1.00  0.00    -0.271 OA
ATOM     48  N   LYS     8      61.582  41.835  41.741  1.00  0.00    -0.338 N 
ATOM     49  H   LYS     8      61.844  41.188  41.015  1.00 99.99     0.164 HD
BRANCH  48  50
ATOM     50  CA  LYS     8      62.174  41.557  43.063  1.00  0.00     0.159 C 
BRANCH  50  51
ATOM     51  C   LYS     8      61.114  41.137  44.102  1.00  0.00     0.251 C 
ATOM     52  O   LYS     8      60.538  40.060  43.973  1.00  0.00    -0.271 OA
ATOM     53  N   ILE     9      60.765  42.044  45.017  1.00  0.00    -0.338 N 
ATOM     54  H   ILE     9      61.197  42.955  45.044  1.00 99.99     0.164 HD
BRANCH  53  55
ATOM     55  CA  ILE     9      59.752  41.800  46.065  1.00  0.00     0.159 C 
BRANCH  55  56
ATOM     56  CB  ILE     9      59.713  42.966  47.081  1.00  0.00     0.029 C 
ATOM     57  CG2 ILE     9      58.382  43.734  47.009  1.00  0.00     0.002 C 
BRANCH  56  58
ATOM     58  CG1 ILE     9      59.931  42.425  48.506  1.00  0.00     0.002 C 
ATOM     59  CD  ILE     9      61.123  43.046  49.247  1.00  0.00     0.000 C 
ENDBRANCH  56  58
ENDBRANCH  55  56
BRANCH  55  60
ATOM     60  C   ILE     9      58.377  41.487  45.438  1.00  0.00     0.251 C 
ATOM     61  N   THR    10      57.656  40.524  46.015  1.00  0.00    -0.336 N 
ATOM     62  H   THR    10      58.010  39.978  46.787  1.00 99.99     0.164 HD
ATOM     63  O   ILE     9      57.924  42.227  44.569  1.00  0.00    -0.271 OA
BRANCH  61  64
ATOM     64  CA  THR    10      56.320  40.110  45.544  1.00  0.00     0.186 C 
BRANCH  64  65
ATOM     65  CB  THR    10      56.373  38.764  44.799  1.00  0.00     0.140 C 
ATOM     66  CG2 THR    10      55.293  38.658  43.715  1.00  0.00     0.034 C 
BRANCH  65  67
ATOM     67  OG1 THR    10      57.655  38.638  44.171  1.00  0.00    -0.382 OA
ATOM     68  HG1 THR    10      58.134  39.519  44.171  1.00 99.99     0.210 HD
ENDBRANCH  65  67
ENDBRANCH  64  65
BRANCH  64  69
ATOM     69  C   THR    10      55.304  40.083  46.702  1.00  0.00     0.253 C 
ATOM     70  O   THR    10      54.208  40.604  46.516  1.00  0.00    -0.270 OA
ATOM     71  N   LYS    11      55.726  39.686  47.907  1.00  0.00    -0.337 N 
ATOM     72  H   LYS    11      56.650  39.318  48.073  1.00 99.99     0.164 HD
BRANCH  71  73
ATOM     73  CA  LYS    11      54.852  39.727  49.097  1.00  0.00     0.159 C 
BRANCH  73  74
ATOM     74  CB  LYS    11      54.007  38.458  49.258  1.00  0.00     0.032 C 
BRANCH  74  75
ATOM     75  CG  LYS    11      54.797  37.202  48.884  1.00  0.00     0.004 C 
BRANCH  75  76
ATOM     76  CD  LYS    11      54.329  36.644  47.538  1.00  0.00     0.032 C 
BRANCH  76  77
ATOM     77  CE  LYS    11      55.448  35.848  46.861  1.00  0.00     0.206 C 
BRANCH  77  78
ATOM     78  NZ  LYS    11      55.012  35.309  45.567  1.00  0.00    -0.064 N 
ATOM     79  HZ3 LYS    11      54.906  36.059  44.913  1.00 99.99     0.275 HD
ATOM     80  HZ2 LYS    11      54.136  34.839  45.676  1.00 99.99     0.275 HD
ATOM     81  HZ1 LYS    11      55.698  34.665  45.225  1.00 99.99     0.275 HD
ENDBRANCH  77  78
ENDBRANCH  76  77
ENDBRANCH  75  76
ENDBRANCH  74  75
ENDBRANCH  73  74
BRANCH  73  82
ATOM     82  C   LYS    11      55.606  40.017  50.408  1.00  0.00     0.251 C 
ATOM     83  O   LYS    11      56.688  40.598  50.354  1.00  0.00    -0.271 OA
ATOM     84  N   LYS    12      55.139  39.465  51.529  1.00  0.00    -0.338 N 
ATOM     85  H   LYS    12      54.272  38.944  51.555  1.00 99.99     0.164 HD
BRANCH  84  86
ATOM     86  CA  LYS    12      55.814  39.608  52.830  1.00  0.00     0.159 C 
BRANCH  86  87
ATOM     87  C   LYS    12      56.677  38.373  53.155  1.00  0.00     0.251 C 
ATOM     88  O   LYS    12      56.131  37.325  53.496  1.00  0.00    -0.271 OA
ATOM     89  N   ASN    13      57.992  38.565  53.243  1.00  0.00    -0.337 N 
ATOM     90  H   ASN    13      58.406  39.455  53.000  1.00 99.99     0.164 HD
BRANCH  89  91
ATOM     91  CA  ASN    13      58.954  37.495  53.563  1.00  0.00     0.169 C 
BRANCH  91  92
ATOM     92  C   ASN    13      59.595  37.699  54.954  1.00  0.00     0.251 C 
ATOM     93  N   MET    14      59.951  36.588  55.601  1.00  0.00    -0.337 N 
ATOM     94  H   MET    14      59.729  35.680  55.222  1.00 99.99     0.164 HD
ATOM     95  O   ASN    13      59.966  38.817  55.303  1.00  0.00    -0.271 OA
BRANCH  93  96
ATOM     96  CA  MET    14      60.652  36.524  56.900  1.00  0.00     0.160 C 
BRANCH  96  97
ATOM     97  C   MET    14      61.709  37.629  57.134  1.00  0.00     0.251 C 
ATOM     98  O   MET    14      61.599  38.391  58.093  1.00  0.00    -0.271 OA
ATOM     99  N   ALA    15      62.744  37.675  56.292  1.00  0.00    -0.338 N 
ATOM    100  H   ALA    15      62.996  36.872  55.741  1.00 99.99     0.164 HD
BRANCH  99 101
ATOM    101  CA  ALA    15      63.737  38.766  56.268  1.00  0.00     0.159 C 
ATOM    102  CB  ALA    15      65.142  38.185  56.456  1.00  0.00     0.034 C 
BRANCH 101 103
ATOM    103  C   ALA    15      63.695  39.624  54.986  1.00  0.00     0.251 C 
ATOM    104  O   ALA    15      64.483  40.555  54.833  1.00  0.00    -0.271 OA
ATOM    105  N   HIS    16      62.831  39.242  54.045  1.00  0.00    -0.337 N 
ATOM    106  H   HIS    16      62.382  38.343  54.108  1.00 99.99     0.164 HD
BRANCH 105 107
ATOM    107  CA  HIS    16      62.576  39.950  52.776  1.00  0.00     0.165 C 
BRANCH 107 108
ATOM    108  C   HIS    16      63.676  39.740  51.711  1.00  0.00     0.251 C 
ATOM    109  O   HIS    16      64.494  38.830  51.836  1.00  0.00    -0.271 OA
ATOM    110  N   ILE    17      63.648  40.542  50.645  1.00  0.00    -0.338 N 
ATOM    111  H   ILE    17      62.873  41.163  50.502  1.00 99.99     0.164 HD
BRANCH 110 112
ATOM    112  CA  ILE    17      64.584  40.440  49.498  1.00  0.00     0.159 C 
BRANCH 112 113
ATOM    113  CB  ILE    17      63.839  39.763  48.314  1.00  0.00     0.029 C 
ATOM    114  CG2 ILE    17      62.341  39.520  48.584  1.00  0.00     0.002 C 
BRANCH 113 115
ATOM    115  CG1 ILE    17      64.016  40.608  47.039  1.00  0.00     0.002 C 
ATOM    116  CD  ILE    17      64.593  39.846  45.836  1.00  0.00     0.000 C 
ENDBRANCH 113 115
ENDBRANCH 112 113
BRANCH 112 117
ATOM    117  C   ILE    17      65.265  41.776  49.121  1.00  0.00     0.251 C 
ATOM    118  O   ILE    17      66.436  41.799  48.741  1.00  0.00    -0.271 OA
ATOM    119  N   ARG    18      64.569  42.894  49.312  1.00  0.00    -0.336 N 
ATOM    120  H   ARG    18      63.795  42.925  49.942  1.00 99.99     0.164 HD
BRANCH 119 121
ATOM    121  CA  ARG    18      65.008  44.212  48.803  1.00  0.00     0.168 C 
BRANCH 121 122
ATOM    122  CB  ARG    18      64.542  44.286  47.348  1.00  0.00     0.035 C 
BRANCH 122 123
ATOM    123  CG  ARG    18      65.681  44.472  46.343  1.00  0.00     0.027 C 
BRANCH 123 124
ATOM    124  CD  ARG    18      67.035  44.319  47.041  1.00  0.00     0.116 C 
BRANCH 124 125
ATOM    125  NE  ARG    18      68.068  43.972  46.057  1.00  0.00    -0.212 N 
ATOM    126  CZ  ARG    18      68.353  42.745  45.615  1.00  0.00     0.666 C 
ATOM    127  NH1 ARG    18      67.776  41.664  46.112  1.00  0.00    -0.235 N 
ATOM    128  NH2 ARG    18      69.096  42.605  44.530  1.00  0.00    -0.235 N 
ATOM    129 2HH1 ARG    18      67.121  41.775  46.864  1.00 99.99     0.174 HD
ATOM    130 1HH1 ARG    18      68.003  40.761  45.764  1.00 99.99     0.174 HD
ATOM    131 2HH2 ARG    18      69.455  43.420  44.073  1.00 99.99     0.174 HD
ATOM    132 1HH2 ARG    18      69.312  41.698  44.187  1.00 99.99     0.174 HD
ATOM    133  HE  ARG    18      68.660  44.727  45.780  1.00 99.99     0.178 HD
ENDBRANCH 124 125
ENDBRANCH 123 124
ENDBRANCH 122 123
ENDBRANCH 121 122
BRANCH 121 134
ATOM    134  C   ARG    18      64.426  45.386  49.613  1.00  0.00     0.206 C 
ATOM    135  O   ARG    18      63.229  45.700  49.414  1.00 99.99    -0.646 OA
ATOM    136  OXT ARG    18      65.165  45.858  50.501  1.00 99.99    -0.646 OA
ENDBRANCH 121 134
ENDBRANCH 119 121
ENDBRANCH 112 117
ENDBRANCH 110 112
ENDBRANCH 107 108
BRANCH 107 137
ATOM    137  CB  HIS    16      62.393  41.441  53.116  1.00  0.00     0.077 C 
BRANCH 137 138
ATOM    138  CG  HIS    16      60.931  41.889  53.250  1.00  0.00     0.057 A 
ATOM    139  CD2 HIS    16      60.387  42.961  52.681  1.00  0.00     0.113 A 
ATOM    140  NE2 HIS    16      59.066  42.882  52.813  1.00  0.00    -0.223 NA
ATOM    141  CE1 HIS    16      58.796  41.769  53.489  1.00  0.00     0.175 A 
ATOM    142  ND1 HIS    16      59.946  41.171  53.784  1.00  0.00    -0.338 N 
ATOM    143  HD1 HIS    16      60.053  40.394  54.405  1.00 99.99     0.167 HD
ENDBRANCH 137 138
ENDBRANCH 107 137
ENDBRANCH 105 107
ENDBRANCH 101 103
ENDBRANCH  99 101
ENDBRANCH  96  97
BRANCH  96 144
ATOM    144  CB  MET    14      61.200  35.092  57.013  1.00  0.00     0.043 C 
BRANCH 144 145
ATOM    145  CG  MET    14      62.081  34.709  58.209  1.00  0.00     0.060 C 
BRANCH 145 146
ATOM    146  SD  MET    14      61.222  34.227  59.754  1.00  0.00    -0.139 SA
ATOM    147  CE  MET    14      60.945  35.794  60.553  1.00  0.00     0.069 C 
ENDBRANCH 145 146
ENDBRANCH 144 145
ENDBRANCH  96 144
ENDBRANCH  93  96
ENDBRANCH  91  92
BRANCH  91 148
ATOM    148  CB  ASN    13      60.030  37.402  52.466  1.00  0.00     0.119 C 
BRANCH 148 149
ATOM    149  CG  ASN    13      59.723  38.169  51.170  1.00  0.00     0.230 C 
ATOM    150  ND2 ASN    13      59.476  37.425  50.111  1.00  0.00    -0.369 N 
ATOM    151 2HD2 ASN    13      59.509  36.434  50.167  1.00 99.99     0.159 HD
ATOM    152 1HD2 ASN    13      59.276  37.911  49.267  1.00 99.99     0.159 HD
ATOM    153  OD1 ASN    13      59.745  39.386  51.056  1.00  0.00    -0.273 OA
ENDBRANCH 148 149
ENDBRANCH  91 148
ENDBRANCH  89  91
ENDBRANCH  86  87
BRANCH  86 154
ATOM    154  CB  LYS    12      54.804  39.880  53.958  1.00  0.00     0.032 C 
BRANCH 154 155
ATOM    155  CG  LYS    12      55.500  40.504  55.172  1.00  0.00     0.004 C 
BRANCH 155 156
ATOM    156  CD  LYS    12      55.437  39.629  56.423  1.00  0.00     0.032 C 
BRANCH 156 157
ATOM    157  CE  LYS    12      56.861  39.379  56.924  1.00  0.00     0.206 C 
BRANCH 157 158
ATOM    158  NZ  LYS    12      57.738  40.534  56.685  1.00  0.00    -0.064 N 
ATOM    159  HZ3 LYS    12      58.665  40.214  56.489  1.00 99.99     0.275 HD
ATOM    160  HZ2 LYS    12      57.748  41.114  57.499  1.00 99.99     0.275 HD
ATOM    161  HZ1 LYS    12      57.392  41.055  55.905  1.00 99.99     0.275 HD
ENDBRANCH 157 158
ENDBRANCH 156 157
ENDBRANCH 155 156
ENDBRANCH 154 155
ENDBRANCH  86 154
ENDBRANCH  84  86
ENDBRANCH  73  82
ENDBRANCH  71  73
ENDBRANCH  64  69
ENDBRANCH  61  64
ENDBRANCH  55  60
ENDBRANCH  53  55
ENDBRANCH  50  51
BRANCH  50 162
ATOM    162  CB  LYS     8      62.996  42.758  43.560  1.00  0.00     0.032 C 
BRANCH 162 163
ATOM    163  CG  LYS     8      64.503  42.512  43.425  1.00  0.00     0.004 C 
BRANCH 163 164
ATOM    164  CD  LYS     8      64.890  41.899  42.077  1.00  0.00     0.032 C 
BRANCH 164 165
ATOM    165  CE  LYS     8      66.268  41.236  42.179  1.00  0.00     0.206 C 
BRANCH 165 166
ATOM    166  NZ  LYS     8      67.345  42.102  41.683  1.00  0.00    -0.064 N 
ATOM    167  HZ3 LYS     8      67.964  42.337  42.433  1.00 99.99     0.275 HD
ATOM    168  HZ1 LYS     8      67.857  41.618  40.972  1.00 99.99     0.275 HD
ATOM    169  HZ2 LYS     8      66.955  42.938  41.295  1.00 99.99     0.275 HD
ENDBRANCH 165 166
ENDBRANCH 164 165
ENDBRANCH 163 164
ENDBRANCH 162 163
ENDBRANCH  50 162
ENDBRANCH  48  50
ENDBRANCH  44  46
ENDBRANCH  42  44
ENDBRANCH  32  40
ENDBRANCH  29  32
ENDBRANCH  27  28
BRANCH  27 170
ATOM    170  CB  LEU     5      60.059  36.735  38.047  1.00  0.00     0.032 C 
BRANCH 170 171
ATOM    171  CG  LEU     5      59.743  35.530  37.151  1.00  0.00     0.002 C 
ATOM    172  CD2 LEU     5      58.335  35.625  36.551  1.00  0.00     0.000 C 
ATOM    173  CD1 LEU     5      59.862  34.243  37.970  1.00  0.00     0.000 C 
ENDBRANCH 170 171
ENDBRANCH  27 170
ENDBRANCH  24  27
ENDBRANCH  22  23
BRANCH  22 174
ATOM    174  CB  LYS     4      64.784  38.103  37.347  1.00  0.00     0.032 C 
BRANCH 174 175
ATOM    175  CG  LYS     4      65.847  38.883  38.133  1.00  0.00     0.004 C 
BRANCH 175 176
ATOM    176  CD  LYS     4      65.743  38.663  39.647  1.00  0.00     0.032 C 
BRANCH 176 177
ATOM    177  CE  LYS     4      64.387  38.049  40.014  1.00  0.00     0.206 C 
BRANCH 177 178
ATOM    178  NZ  LYS     4      63.402  39.061  40.436  1.00  0.00    -0.064 N 
ATOM    179  HZ1 LYS     4      63.441  39.164  41.431  1.00 99.99     0.275 HD
ATOM    180  HZ2 LYS     4      63.612  39.939  40.010  1.00 99.99     0.275 HD
ATOM    181  HZ3 LYS     4      62.481  38.770  40.176  1.00 99.99     0.275 HD
ENDBRANCH 177 178
ENDBRANCH 176 177
ENDBRANCH 175 176
ENDBRANCH 174 175
ENDBRANCH  22 174
ENDBRANCH  20  22
ENDBRANCH  14  18
ENDBRANCH  10  11
BRANCH  10 182
ATOM    182  CB  LEU     2      68.378  43.638  35.057  1.00  0.00     0.032 C 
BRANCH 182 183
ATOM    183  CG  LEU     2      68.779  44.294  33.725  1.00  0.00     0.002 C 
ATOM    184  CD2 LEU     2      69.958  45.241  33.950  1.00  0.00     0.000 C 
ATOM    185  CD1 LEU     2      67.610  45.044  33.075  1.00  0.00     0.000 C 
ENDBRANCH 182 183
ENDBRANCH  10 182
ENDBRANCH   7  10
ENDBRANCH   5   6
BRANCH   5 186
ATOM    186  CB  PHE     1      69.643  47.298  38.027  1.00  0.00     0.064 C 
BRANCH 186 187
ATOM    187  CG  PHE     1      68.605  48.418  38.143  1.00  0.00    -0.044 A 
ATOM    188  CD1 PHE     1      68.684  49.503  37.292  1.00  0.00     0.008 A 
ATOM    189  CE1 PHE     1      67.782  50.543  37.413  1.00  0.00     0.001 A 
ATOM    190  CZ  PHE     1      66.798  50.506  38.393  1.00  0.00     0.000 A 
ATOM    191  CE2 PHE     1      66.717  49.409  39.258  1.00  0.00     0.001 A 
ATOM    192  CD2 PHE     1      67.624  48.358  39.123  1.00  0.00     0.008 A 
ENDBRANCH 186 187
ENDBRANCH   5 186
ENDBRANCH   1   5
TORSDOF 80
ENDMDL
MODEL 6
REMARK VINA RESULT:      -3.1      3.175      8.520
REMARK WARNING: 32 MAX_TORS EXCEEDED!!!
REMARK  80 active torsions:
REMARK  status: ('A' for Active; 'I' for Inactive)
REMARK    1  A    between atoms: N_1  and  CA_2 
REMARK    2  A    between atoms: CA_2  and  C_3 
REMARK    3  A    between atoms: CA_2  and  CB_5 
REMARK       I    between atoms: C_3  and  N_15 
REMARK    4  A    between atoms: CB_5  and  CG_6 
REMARK    5  A    between atoms: N_15  and  CA_16 
REMARK    6  A    between atoms: CA_16  and  C_17 
REMARK    7  A    between atoms: CA_16  and  CB_19 
REMARK       I    between atoms: C_17  and  N_24 
REMARK    8  A    between atoms: CB_19  and  CG_20 
REMARK    9  A    between atoms: CA_25  and  C_26 
REMARK       I    between atoms: C_26  and  N_31 
REMARK   10  A    between atoms: N_31  and  CA_32 
REMARK   11  A    between atoms: CA_32  and  C_33 
REMARK   12  A    between atoms: CA_32  and  CB_35 
REMARK       I    between atoms: C_33  and  N_44 
REMARK   13  A    between atoms: CB_35  and  CG_36 
REMARK   14  A    between atoms: CG_36  and  CD_37 
REMARK   15  A    between atoms: CD_37  and  CE_38 
REMARK   16  A    between atoms: CE_38  and  NZ_39 
REMARK   17  A    between atoms: N_44  and  CA_45 
REMARK   18  A    between atoms: CA_45  and  C_46 
REMARK   19  A    between atoms: CA_45  and  CB_48 
REMARK       I    between atoms: C_46  and  N_53 
REMARK   20  A    between atoms: CB_48  and  CG_49 
REMARK   21  A    between atoms: N_53  and  CA_54 
REMARK   22  A    between atoms: CA_54  and  CB_57 
REMARK   23  A    between atoms: CA_54  and  C_55 
REMARK       I    between atoms: C_55  and  N_65 
REMARK   24  A    between atoms: CB_57  and  CG_58 
REMARK   25  A    between atoms: N_65  and  CA_66 
REMARK   26  A    between atoms: CA_66  and  C_67 
REMARK       I    between atoms: C_67  and  N_71 
REMARK   27  A    between atoms: N_71  and  CA_72 
REMARK   28  A    between atoms: CA_72  and  C_73 
REMARK   29  A    between atoms: CA_72  and  CB_75 
REMARK       I    between atoms: C_73  and  N_84 
REMARK   30  A    between atoms: CB_75  and  CG_76 
REMARK   31  A    between atoms: CG_76  and  CD_77 
REMARK   32  A    between atoms: CD_77  and  CE_78 
REMARK   33  A    between atoms: CE_78  and  NZ_79 
REMARK   34  A    between atoms: N_84  and  CA_85 
REMARK   35  A    between atoms: CA_85  and  CB_88 
REMARK   36  A    between atoms: CA_85  and  C_86 
REMARK       I    between atoms: C_86  and  N_93 
REMARK   37  A    between atoms: CB_88  and  CG1_89 
REMARK   38  A    between atoms: N_93  and  CA_94 
REMARK   39  A    between atoms: CA_94  and  CB_97 
REMARK   40  A    between atoms: CA_94  and  C_95 
REMARK       I    between atoms: C_95  and  N_102 
REMARK   41  A    between atoms: CB_97  and  OG1_98 
REMARK   42  A    between atoms: N_102  and  CA_103 
REMARK   43  A    between atoms: CA_103  and  CB_106 
REMARK   44  A    between atoms: CA_103  and  C_104 
REMARK       I    between atoms: C_104  and  N_115 
REMARK   45  A    between atoms: CB_106  and  CG_107 
REMARK   46  A    between atoms: CG_107  and  CD_108 
REMARK   47  A    between atoms: CD_108  and  CE_109 
REMARK   48  A    between atoms: CE_109  and  NZ_110 
REMARK   49  A    between atoms: N_115  and  CA_116 
REMARK   50  A    between atoms: CA_116  and  C_117 
REMARK   51  A    between atoms: CA_116  and  CB_119 
REMARK       I    between atoms: C_117  and  N_128 
REMARK   52  A    between atoms: CB_119  and  CG_120 
REMARK   53  A    between atoms: CG_120  and  CD_121 
REMARK   54  A    between atoms: CD_121  and  CE_122 
REMARK   55  A    between atoms: CE_122  and  NZ_123 
REMARK   56  A    between atoms: N_128  and  CA_129 
REMARK   57  A    between atoms: CA_129  and  C_130 
REMARK   58  A    between atoms: CA_129  and  CB_132 
REMARK       I    between atoms: C_130  and  N_139 
REMARK   59  A    between atoms: CB_132  and  CG_133 
REMARK       I    between atoms: CG_133  and  ND2_135 
REMARK   60  A    between atoms: N_139  and  CA_140 
REMARK   61  A    between atoms: CA_140  and  C_141 
REMARK   62  A    between atoms: CA_140  and  CB_143 
REMARK       I    between atoms: C_141  and  N_148 
REMARK   63  A    between atoms: CB_143  and  CG_144 
REMARK   64  A    between atoms: CG_144  and  SD_145 
REMARK   65  A    between atoms: N_148  and  CA_149 
REMARK   66  A    between atoms: CA_149  and  C_150 
REMARK       I    between atoms: C_150  and  N_154 
REMARK   67  A    between atoms: N_154  and  CA_155 
REMARK   68  A    between atoms: CA_155  and  C_156 
REMARK   69  A    between atoms: CA_155  and  CB_158 
REMARK       I    between atoms: C_156  and  N_166 
REMARK   70  A    between atoms: CB_158  and  CG_159 
REMARK   71  A    between atoms: N_166  and  CA_167 
REMARK   72  A    between atoms: CA_167  and  CB_170 
REMARK   73  A    between atoms: CA_167  and  C_168 
REMARK       I    between atoms: C_168  and  N_175 
REMARK   74  A    between atoms: CB_170  and  CG1_171 
REMARK   75  A    between atoms: N_175  and  CA_176 
REMARK   76  A    between atoms: CA_176  and  CB_179 
REMARK   77  A    between atoms: CA_176  and  C_177 
REMARK   78  A    between atoms: CB_179  and  CG_180 
REMARK   79  A    between atoms: CG_180  and  CD_181 
REMARK   80  A    between atoms: CD_181  and  NE_182 
REMARK       I    between atoms: NE_182  and  CZ_183 
REMARK       I    between atoms: CZ_183  and  NH1_184 
ROOT
ATOM      1  N   PHE     1      69.728  45.346  40.350  1.00  0.00    -0.057 N 
ATOM      2  H1  PHE     1      70.418  46.003  40.637  1.00 99.99     0.276 HD
ATOM      3  H2  PHE     1      69.119  45.158  41.120  1.00 99.99     0.276 HD
ATOM      4  H3  PHE     1      70.147  44.458  40.162  1.00 99.99     0.276 HD
ENDROOT
BRANCH   1   5
ATOM      5  CA  PHE     1      68.960  45.850  39.166  1.00  0.00     0.259 C 
BRANCH   5   6
ATOM      6  C   PHE     1      68.602  44.892  37.991  1.00  0.00     0.259 C 
ATOM      7  N   LEU     2      67.850  45.361  36.990  1.00  0.00    -0.338 N 
ATOM      8  H   LEU     2      67.652  46.333  36.871  1.00 99.99     0.164 HD
ATOM      9  O   PHE     1      69.192  43.817  37.876  1.00  0.00    -0.271 OA
BRANCH   7  10
ATOM     10  CA  LEU     2      67.318  44.472  35.930  1.00  0.00     0.160 C 
BRANCH  10  11
ATOM     11  C   LEU     2      66.186  43.504  36.367  1.00  0.00     0.254 C 
ATOM     12  N   PRO     3      64.884  43.852  36.253  1.00  0.00    -0.312 N 
ATOM     13  CD  PRO     3      64.337  45.216  36.081  1.00  0.00     0.105 C 
ATOM     14  CA  PRO     3      63.780  42.918  36.544  1.00  0.00     0.163 C 
ATOM     15  CG  PRO     3      62.907  45.130  36.615  1.00  0.00     0.027 C 
ATOM     16  CB  PRO     3      62.496  43.702  36.270  1.00  0.00     0.034 C 
ATOM     17  O   LEU     2      66.521  42.354  36.638  1.00  0.00    -0.270 OA
BRANCH  14  18
ATOM     18  C   PRO     3      63.832  41.633  35.702  1.00  0.00     0.251 C 
ATOM     19  O   PRO     3      63.567  41.707  34.505  1.00  0.00    -0.271 OA
ATOM     20  N   LYS     4      63.972  40.470  36.348  1.00  0.00    -0.338 N 
ATOM     21  H   LYS     4      64.128  40.432  37.335  1.00 99.99     0.164 HD
BRANCH  20  22
ATOM     22  CA  LYS     4      63.980  39.153  35.677  1.00  0.00     0.159 C 
BRANCH  22  23
ATOM     23  C   LYS     4      62.592  38.481  35.679  1.00  0.00     0.251 C 
ATOM     24  N   LEU     5      61.920  38.483  36.834  1.00  0.00    -0.338 N 
ATOM     25  H   LEU     5      62.342  38.792  37.692  1.00 99.99     0.164 HD
ATOM     26  O   LYS     4      62.102  38.091  34.619  1.00  0.00    -0.271 OA
BRANCH  24  27
ATOM     27  CA  LEU     5      60.540  37.977  36.954  1.00  0.00     0.159 C 
BRANCH  27  28
ATOM     28  C   LEU     5      59.530  39.056  37.356  1.00  0.00     0.251 C 
ATOM     29  N   PHE     6      58.952  38.922  38.553  1.00  0.00    -0.337 N 
ATOM     30  H   PHE     6      59.098  38.107  39.123  1.00 99.99     0.164 HD
ATOM     31  O   LEU     5      59.443  40.080  36.678  1.00  0.00    -0.271 OA
BRANCH  29  32
ATOM     32  CA  PHE     6      58.026  39.921  39.117  1.00  0.00     0.164 C 
BRANCH  32  33
ATOM     33  CB  PHE     6      56.944  39.221  39.948  1.00  0.00     0.056 C 
BRANCH  33  34
ATOM     34  CG  PHE     6      56.259  38.080  39.170  1.00  0.00    -0.044 A 
ATOM     35  CD1 PHE     6      55.553  38.357  38.016  1.00  0.00     0.008 A 
ATOM     36  CE1 PHE     6      54.934  37.334  37.311  1.00  0.00     0.001 A 
ATOM     37  CZ  PHE     6      55.030  36.017  37.768  1.00  0.00     0.000 A 
ATOM     38  CE2 PHE     6      55.751  35.742  38.932  1.00  0.00     0.001 A 
ATOM     39  CD2 PHE     6      56.361  36.780  39.631  1.00  0.00     0.008 A 
ENDBRANCH  33  34
ENDBRANCH  32  33
BRANCH  32  40
ATOM     40  C   PHE     6      58.781  40.984  39.934  1.00  0.00     0.251 C 
ATOM     41  O   PHE     6      58.551  41.078  41.137  1.00  0.00    -0.271 OA
ATOM     42  N   ALA     7      59.418  41.932  39.244  1.00  0.00    -0.338 N 
ATOM     43  H   ALA     7      59.484  41.896  38.237  1.00 99.99     0.164 HD
BRANCH  42  44
ATOM     44  CA  ALA     7      60.117  43.069  39.864  1.00  0.00     0.159 C 
ATOM     45  CB  ALA     7      59.172  44.268  39.998  1.00  0.00     0.034 C 
BRANCH  44  46
ATOM     46  C   ALA     7      60.737  42.731  41.233  1.00  0.00     0.251 C 
ATOM     47  O   ALA     7      60.428  43.418  42.205  1.00  0.00    -0.271 OA
ATOM     48  N   LYS     8      61.714  41.820  41.270  1.00  0.00    -0.338 N 
ATOM     49  H   LYS     8      61.955  41.258  40.468  1.00 99.99     0.164 HD
BRANCH  48  50
ATOM     50  CA  LYS     8      62.451  41.486  42.504  1.00  0.00     0.159 C 
BRANCH  50  51
ATOM     51  C   LYS     8      61.572  40.733  43.523  1.00  0.00     0.251 C 
ATOM     52  O   LYS     8      61.237  39.575  43.290  1.00  0.00    -0.271 OA
ATOM     53  N   ILE     9      61.092  41.437  44.551  1.00  0.00    -0.338 N 
ATOM     54  H   ILE     9      61.318  42.413  44.669  1.00 99.99     0.164 HD
BRANCH  53  55
ATOM     55  CA  ILE     9      60.223  40.865  45.599  1.00  0.00     0.159 C 
BRANCH  55  56
ATOM     56  CB  ILE     9      60.608  41.405  46.997  1.00  0.00     0.029 C 
ATOM     57  CG2 ILE     9      61.670  40.519  47.671  1.00  0.00     0.002 C 
BRANCH  56  58
ATOM     58  CG1 ILE     9      61.130  42.848  46.873  1.00  0.00     0.002 C 
ATOM     59  CD  ILE     9      60.129  43.926  47.310  1.00  0.00     0.000 C 
ENDBRANCH  56  58
ENDBRANCH  55  56
BRANCH  55  60
ATOM     60  C   ILE     9      58.733  41.072  45.251  1.00  0.00     0.251 C 
ATOM     61  N   THR    10      57.902  40.066  45.528  1.00  0.00    -0.336 N 
ATOM     62  H   THR    10      58.231  39.183  45.890  1.00 99.99     0.164 HD
ATOM     63  O   ILE     9      58.340  42.185  44.909  1.00  0.00    -0.271 OA
BRANCH  61  64
ATOM     64  CA  THR    10      56.451  40.108  45.265  1.00  0.00     0.186 C 
BRANCH  64  65
ATOM     65  CB  THR    10      56.044  39.107  44.169  1.00  0.00     0.140 C 
ATOM     66  CG2 THR    10      56.661  37.720  44.390  1.00  0.00     0.034 C 
BRANCH  65  67
ATOM     67  OG1 THR    10      54.617  38.972  44.177  1.00  0.00    -0.382 OA
ATOM     68  HG1 THR    10      54.317  38.378  43.427  1.00 99.99     0.210 HD
ENDBRANCH  65  67
ENDBRANCH  64  65
BRANCH  64  69
ATOM     69  C   THR    10      55.643  39.897  46.560  1.00  0.00     0.253 C 
ATOM     70  O   THR    10      54.572  40.487  46.671  1.00  0.00    -0.270 OA
ATOM     71  N   LYS    11      56.230  39.259  47.578  1.00  0.00    -0.337 N 
ATOM     72  H   LYS    11      57.140  38.830  47.506  1.00 99.99     0.164 HD
BRANCH  71  73
ATOM     73  CA  LYS    11      55.573  39.103  48.891  1.00  0.00     0.159 C 
BRANCH  73  74
ATOM     74  CB  LYS    11      55.348  37.636  49.273  1.00  0.00     0.032 C 
BRANCH  74  75
ATOM     75  CG  LYS    11      53.859  37.280  49.296  1.00  0.00     0.004 C 
BRANCH  75  76
ATOM     76  CD  LYS    11      52.997  38.529  49.101  1.00  0.00     0.032 C 
BRANCH  76  77
ATOM     77  CE  LYS    11      51.752  38.474  49.991  1.00  0.00     0.206 C 
BRANCH  77  78
ATOM     78  NZ  LYS    11      50.624  39.181  49.374  1.00  0.00    -0.064 N 
ATOM     79  HZ3 LYS    11      50.947  40.041  48.976  1.00 99.99     0.275 HD
ATOM     80  HZ2 LYS    11      49.929  39.378  50.067  1.00 99.99     0.275 HD
ATOM     81  HZ1 LYS    11      50.226  38.612  48.653  1.00 99.99     0.275 HD
ENDBRANCH  77  78
ENDBRANCH  76  77
ENDBRANCH  75  76
ENDBRANCH  74  75
ENDBRANCH  73  74
BRANCH  73  82
ATOM     82  C   LYS    11      56.299  39.831  50.036  1.00  0.00     0.251 C 
ATOM     83  O   LYS    11      57.385  40.362  49.808  1.00  0.00    -0.271 OA
ATOM     84  N   LYS    12      55.806  39.699  51.269  1.00  0.00    -0.338 N 
ATOM     85  H   LYS    12      54.936  39.217  51.455  1.00 99.99     0.164 HD
BRANCH  84  86
ATOM     86  CA  LYS    12      56.453  40.286  52.454  1.00  0.00     0.159 C 
BRANCH  86  87
ATOM     87  C   LYS    12      56.466  39.297  53.636  1.00  0.00     0.251 C 
ATOM     88  O   LYS    12      55.411  39.010  54.198  1.00  0.00    -0.271 OA
ATOM     89  N   ASN    13      57.659  38.953  54.119  1.00  0.00    -0.337 N 
ATOM     90  H   ASN    13      58.511  39.245  53.659  1.00 99.99     0.164 HD
BRANCH  89  91
ATOM     91  CA  ASN    13      57.847  38.034  55.254  1.00  0.00     0.169 C 
BRANCH  91  92
ATOM     92  C   ASN    13      58.999  38.490  56.177  1.00  0.00     0.251 C 
ATOM     93  N   MET    14      59.143  37.807  57.314  1.00  0.00    -0.337 N 
ATOM     94  H   MET    14      58.477  37.095  57.571  1.00 99.99     0.164 HD
ATOM     95  O   ASN    13      59.857  39.263  55.756  1.00  0.00    -0.271 OA
BRANCH  93  96
ATOM     96  CA  MET    14      60.212  37.998  58.315  1.00  0.00     0.160 C 
BRANCH  96  97
ATOM     97  C   MET    14      60.799  39.427  58.389  1.00  0.00     0.251 C 
ATOM     98  O   MET    14      60.099  40.358  58.783  1.00  0.00    -0.271 OA
ATOM     99  N   ALA    15      62.084  39.580  58.061  1.00  0.00    -0.338 N 
ATOM    100  H   ALA    15      62.715  38.797  58.068  1.00 99.99     0.164 HD
BRANCH  99 101
ATOM    101  CA  ALA    15      62.744  40.891  57.907  1.00  0.00     0.159 C 
ATOM    102  CB  ALA    15      64.044  40.909  58.716  1.00  0.00     0.034 C 
BRANCH 101 103
ATOM    103  C   ALA    15      63.035  41.279  56.443  1.00  0.00     0.251 C 
ATOM    104  O   ALA    15      63.676  42.296  56.183  1.00  0.00    -0.271 OA
ATOM    105  N   HIS    16      62.635  40.415  55.509  1.00  0.00    -0.337 N 
ATOM    106  H   HIS    16      62.335  39.491  55.773  1.00 99.99     0.164 HD
BRANCH 105 107
ATOM    107  CA  HIS    16      62.748  40.613  54.051  1.00  0.00     0.165 C 
BRANCH 107 108
ATOM    108  C   HIS    16      64.081  40.106  53.454  1.00  0.00     0.251 C 
ATOM    109  O   HIS    16      65.129  40.226  54.087  1.00  0.00    -0.271 OA
ATOM    110  N   ILE    17      64.019  39.491  52.272  1.00  0.00    -0.338 N 
ATOM    111  H   ILE    17      63.129  39.270  51.865  1.00 99.99     0.164 HD
BRANCH 110 112
ATOM    112  CA  ILE    17      65.185  38.884  51.583  1.00  0.00     0.159 C 
BRANCH 112 113
ATOM    113  CB  ILE    17      65.149  37.349  51.812  1.00  0.00     0.029 C 
ATOM    114  CG2 ILE    17      66.387  36.804  52.552  1.00  0.00     0.002 C 
BRANCH 113 115
ATOM    115  CG1 ILE    17      63.868  36.969  52.578  1.00  0.00     0.002 C 
ATOM    116  CD  ILE    17      62.968  35.951  51.861  1.00  0.00     0.000 C 
ENDBRANCH 113 115
ENDBRANCH 112 113
BRANCH 112 117
ATOM    117  C   ILE    17      65.318  39.289  50.096  1.00  0.00     0.251 C 
ATOM    118  O   ILE    17      64.947  38.528  49.203  1.00  0.00    -0.271 OA
ATOM    119  N   ARG    18      65.929  40.441  49.827  1.00  0.00    -0.336 N 
ATOM    120  H   ARG    18      66.543  40.872  50.485  1.00 99.99     0.164 HD
BRANCH 119 121
ATOM    121  CA  ARG    18      65.938  41.050  48.479  1.00  0.00     0.168 C 
BRANCH 121 122
ATOM    122  CB  ARG    18      65.521  42.510  48.667  1.00  0.00     0.035 C 
BRANCH 122 123
ATOM    123  CG  ARG    18      65.068  43.194  47.375  1.00  0.00     0.027 C 
BRANCH 123 124
ATOM    124  CD  ARG    18      65.141  44.715  47.526  1.00  0.00     0.116 C 
BRANCH 124 125
ATOM    125  NE  ARG    18      64.482  45.126  48.773  1.00  0.00    -0.212 N 
ATOM    126  CZ  ARG    18      64.658  46.285  49.411  1.00  0.00     0.666 C 
ATOM    127  NH1 ARG    18      65.554  47.176  49.022  1.00  0.00    -0.235 N 
ATOM    128  NH2 ARG    18      63.798  46.644  50.350  1.00  0.00    -0.235 N 
ATOM    129 2HH1 ARG    18      66.136  46.956  48.235  1.00 99.99     0.174 HD
ATOM    130 1HH1 ARG    18      65.665  48.033  49.513  1.00 99.99     0.174 HD
ATOM    131 2HH2 ARG    18      63.045  46.028  50.585  1.00 99.99     0.174 HD
ATOM    132 1HH2 ARG    18      63.914  47.505  50.830  1.00 99.99     0.174 HD
ATOM    133  HE  ARG    18      63.929  44.420  49.212  1.00 99.99     0.178 HD
ENDBRANCH 124 125
ENDBRANCH 123 124
ENDBRANCH 122 123
ENDBRANCH 121 122
BRANCH 121 134
ATOM    134  C   ARG    18      67.317  40.969  47.799  1.00  0.00     0.206 C 
ATOM    135  O   ARG    18      68.218  41.740  48.204  1.00 99.99    -0.646 OA
ATOM    136  OXT ARG    18      67.466  40.047  46.972  1.00 99.99    -0.646 OA
ENDBRANCH 121 134
ENDBRANCH 119 121
ENDBRANCH 112 117
ENDBRANCH 110 112
ENDBRANCH 107 108
BRANCH 107 137
ATOM    137  CB  HIS    16      62.540  42.114  53.779  1.00  0.00     0.077 C 
BRANCH 137 138
ATOM    138  CG  HIS    16      62.120  42.447  52.340  1.00  0.00     0.057 A 
ATOM    139  CD2 HIS    16      60.874  42.477  51.877  1.00  0.00     0.113 A 
ATOM    140  NE2 HIS    16      60.885  43.044  50.674  1.00  0.00    -0.223 NA
ATOM    141  CE1 HIS    16      62.148  43.343  50.384  1.00  0.00     0.175 A 
ATOM    142  ND1 HIS    16      62.914  42.949  51.397  1.00  0.00    -0.338 N 
ATOM    143  HD1 HIS    16      63.914  42.918  51.391  1.00 99.99     0.167 HD
ENDBRANCH 137 138
ENDBRANCH 107 137
ENDBRANCH 105 107
ENDBRANCH 101 103
ENDBRANCH  99 101
ENDBRANCH  96  97
BRANCH  96 144
ATOM    144  CB  MET    14      61.253  36.902  58.032  1.00  0.00     0.043 C 
BRANCH 144 145
ATOM    145  CG  MET    14      62.137  36.999  56.781  1.00  0.00     0.060 C 
BRANCH 145 146
ATOM    146  SD  MET    14      63.408  35.700  56.558  1.00  0.00    -0.139 SA
ATOM    147  CE  MET    14      64.927  36.589  56.821  1.00  0.00     0.069 C 
ENDBRANCH 145 146
ENDBRANCH 144 145
ENDBRANCH  96 144
ENDBRANCH  93  96
ENDBRANCH  91  92
BRANCH  91 148
ATOM    148  CB  ASN    13      58.081  36.600  54.745  1.00  0.00     0.119 C 
BRANCH 148 149
ATOM    149  CG  ASN    13      59.305  36.412  53.834  1.00  0.00     0.230 C 
ATOM    150  ND2 ASN    13      60.071  35.378  54.113  1.00  0.00    -0.369 N 
ATOM    151 2HD2 ASN    13      59.862  34.781  54.879  1.00 99.99     0.159 HD
ATOM    152 1HD2 ASN    13      60.866  35.247  53.529  1.00 99.99     0.159 HD
ATOM    153  OD1 ASN    13      59.625  37.170  52.930  1.00  0.00    -0.273 OA
ENDBRANCH 148 149
ENDBRANCH  91 148
ENDBRANCH  89  91
ENDBRANCH  86  87
BRANCH  86 154
ATOM    154  CB  LYS    12      55.783  41.610  52.860  1.00  0.00     0.032 C 
BRANCH 154 155
ATOM    155  CG  LYS    12      56.428  42.792  52.127  1.00  0.00     0.004 C 
BRANCH 155 156
ATOM    156  CD  LYS    12      55.416  43.678  51.401  1.00  0.00     0.032 C 
BRANCH 156 157
ATOM    157  CE  LYS    12      55.078  43.039  50.052  1.00  0.00     0.206 C 
BRANCH 157 158
ATOM    158  NZ  LYS    12      56.154  43.229  49.069  1.00  0.00    -0.064 N 
ATOM    159  HZ3 LYS    12      56.786  43.932  49.397  1.00 99.99     0.275 HD
ATOM    160  HZ2 LYS    12      55.758  43.512  48.196  1.00 99.99     0.275 HD
ATOM    161  HZ1 LYS    12      56.647  42.366  48.950  1.00 99.99     0.275 HD
ENDBRANCH 157 158
ENDBRANCH 156 157
ENDBRANCH 155 156
ENDBRANCH 154 155
ENDBRANCH  86 154
ENDBRANCH  84  86
ENDBRANCH  73  82
ENDBRANCH  71  73
ENDBRANCH  64  69
ENDBRANCH  61  64
ENDBRANCH  55  60
ENDBRANCH  53  55
ENDBRANCH  50  51
BRANCH  50 162
ATOM    162  CB  LYS     8      63.074  42.745  43.128  1.00  0.00     0.032 C 
BRANCH 162 163
ATOM    163  CG  LYS     8      64.495  42.483  43.642  1.00  0.00     0.004 C 
BRANCH 163 164
ATOM    164  CD  LYS     8      65.438  41.969  42.553  1.00  0.00     0.032 C 
BRANCH 164 165
ATOM    165  CE  LYS     8      66.454  40.992  43.159  1.00  0.00     0.206 C 
BRANCH 165 166
ATOM    166  NZ  LYS     8      67.194  41.579  44.283  1.00  0.00    -0.064 N 
ATOM    167  HZ3 LYS     8      66.702  42.376  44.634  1.00 99.99     0.275 HD
ATOM    168  HZ1 LYS     8      67.282  40.899  45.012  1.00 99.99     0.275 HD
ATOM    169  HZ2 LYS     8      68.107  41.856  43.979  1.00 99.99     0.275 HD
ENDBRANCH 165 166
ENDBRANCH 164 165
ENDBRANCH 163 164
ENDBRANCH 162 163
ENDBRANCH  50 162
ENDBRANCH  48  50
ENDBRANCH  44  46
ENDBRANCH  42  44
ENDBRANCH  32  40
ENDBRANCH  29  32
ENDBRANCH  27  28
BRANCH  27 170
ATOM    170  CB  LEU     5      60.462  36.768  37.897  1.00  0.00     0.032 C 
BRANCH 170 171
ATOM    171  CG  LEU     5      61.432  35.647  37.504  1.00  0.00     0.002 C 
ATOM    172  CD2 LEU     5      60.687  34.355  37.143  1.00  0.00     0.000 C 
ATOM    173  CD1 LEU     5      62.391  35.374  38.664  1.00  0.00     0.000 C 
ENDBRANCH 170 171
ENDBRANCH  27 170
ENDBRANCH  24  27
ENDBRANCH  22  23
BRANCH  22 174
ATOM    174  CB  LYS     4      65.044  38.242  36.315  1.00  0.00     0.032 C 
BRANCH 174 175
ATOM    175  CG  LYS     4      64.946  38.188  37.846  1.00  0.00     0.004 C 
BRANCH 175 176
ATOM    176  CD  LYS     4      65.969  37.232  38.471  1.00  0.00     0.032 C 
BRANCH 176 177
ATOM    177  CE  LYS     4      66.866  37.974  39.469  1.00  0.00     0.206 C 
BRANCH 177 178
ATOM    178  NZ  LYS     4      66.169  38.296  40.727  1.00  0.00    -0.064 N 
ATOM    179  HZ1 LYS     4      66.846  38.512  41.433  1.00 99.99     0.275 HD
ATOM    180  HZ2 LYS     4      65.575  39.088  40.594  1.00 99.99     0.275 HD
ATOM    181  HZ3 LYS     4      65.626  37.513  41.027  1.00 99.99     0.275 HD
ENDBRANCH 177 178
ENDBRANCH 176 177
ENDBRANCH 175 176
ENDBRANCH 174 175
ENDBRANCH  22 174
ENDBRANCH  20  22
ENDBRANCH  14  18
ENDBRANCH  10  11
BRANCH  10 182
ATOM    182  CB  LEU     2      68.464  43.777  35.171  1.00  0.00     0.032 C 
BRANCH 182 183
ATOM    183  CG  LEU     2      68.507  44.066  33.661  1.00  0.00     0.002 C 
ATOM    184  CD2 LEU     2      68.881  42.792  32.902  1.00  0.00     0.000 C 
ATOM    185  CD1 LEU     2      69.485  45.196  33.318  1.00  0.00     0.000 C 
ENDBRANCH 182 183
ENDBRANCH  10 182
ENDBRANCH   7  10
ENDBRANCH   5   6
BRANCH   5 186
ATOM    186  CB  PHE     1      69.657  47.068  38.553  1.00  0.00     0.064 C 
BRANCH 186 187
ATOM    187  CG  PHE     1      68.734  48.281  38.399  1.00  0.00    -0.044 A 
ATOM    188  CD1 PHE     1      68.840  49.070  37.270  1.00  0.00     0.008 A 
ATOM    189  CE1 PHE     1      68.047  50.193  37.136  1.00  0.00     0.001 A 
ATOM    190  CZ  PHE     1      67.146  50.538  38.136  1.00  0.00     0.000 A 
ATOM    191  CE2 PHE     1      67.038  49.742  39.282  1.00  0.00     0.001 A 
ATOM    192  CD2 PHE     1      67.834  48.603  39.405  1.00  0.00     0.008 A 
ENDBRANCH 186 187
ENDBRANCH   5 186
ENDBRANCH   1   5
TORSDOF 80
ENDMDL
MODEL 7
REMARK VINA RESULT:      -3.1      3.412      9.020
REMARK WARNING: 32 MAX_TORS EXCEEDED!!!
REMARK  80 active torsions:
REMARK  status: ('A' for Active; 'I' for Inactive)
REMARK    1  A    between atoms: N_1  and  CA_2 
REMARK    2  A    between atoms: CA_2  and  C_3 
REMARK    3  A    between atoms: CA_2  and  CB_5 
REMARK       I    between atoms: C_3  and  N_15 
REMARK    4  A    between atoms: CB_5  and  CG_6 
REMARK    5  A    between atoms: N_15  and  CA_16 
REMARK    6  A    between atoms: CA_16  and  C_17 
REMARK    7  A    between atoms: CA_16  and  CB_19 
REMARK       I    between atoms: C_17  and  N_24 
REMARK    8  A    between atoms: CB_19  and  CG_20 
REMARK    9  A    between atoms: CA_25  and  C_26 
REMARK       I    between atoms: C_26  and  N_31 
REMARK   10  A    between atoms: N_31  and  CA_32 
REMARK   11  A    between atoms: CA_32  and  C_33 
REMARK   12  A    between atoms: CA_32  and  CB_35 
REMARK       I    between atoms: C_33  and  N_44 
REMARK   13  A    between atoms: CB_35  and  CG_36 
REMARK   14  A    between atoms: CG_36  and  CD_37 
REMARK   15  A    between atoms: CD_37  and  CE_38 
REMARK   16  A    between atoms: CE_38  and  NZ_39 
REMARK   17  A    between atoms: N_44  and  CA_45 
REMARK   18  A    between atoms: CA_45  and  C_46 
REMARK   19  A    between atoms: CA_45  and  CB_48 
REMARK       I    between atoms: C_46  and  N_53 
REMARK   20  A    between atoms: CB_48  and  CG_49 
REMARK   21  A    between atoms: N_53  and  CA_54 
REMARK   22  A    between atoms: CA_54  and  CB_57 
REMARK   23  A    between atoms: CA_54  and  C_55 
REMARK       I    between atoms: C_55  and  N_65 
REMARK   24  A    between atoms: CB_57  and  CG_58 
REMARK   25  A    between atoms: N_65  and  CA_66 
REMARK   26  A    between atoms: CA_66  and  C_67 
REMARK       I    between atoms: C_67  and  N_71 
REMARK   27  A    between atoms: N_71  and  CA_72 
REMARK   28  A    between atoms: CA_72  and  C_73 
REMARK   29  A    between atoms: CA_72  and  CB_75 
REMARK       I    between atoms: C_73  and  N_84 
REMARK   30  A    between atoms: CB_75  and  CG_76 
REMARK   31  A    between atoms: CG_76  and  CD_77 
REMARK   32  A    between atoms: CD_77  and  CE_78 
REMARK   33  A    between atoms: CE_78  and  NZ_79 
REMARK   34  A    between atoms: N_84  and  CA_85 
REMARK   35  A    between atoms: CA_85  and  CB_88 
REMARK   36  A    between atoms: CA_85  and  C_86 
REMARK       I    between atoms: C_86  and  N_93 
REMARK   37  A    between atoms: CB_88  and  CG1_89 
REMARK   38  A    between atoms: N_93  and  CA_94 
REMARK   39  A    between atoms: CA_94  and  CB_97 
REMARK   40  A    between atoms: CA_94  and  C_95 
REMARK       I    between atoms: C_95  and  N_102 
REMARK   41  A    between atoms: CB_97  and  OG1_98 
REMARK   42  A    between atoms: N_102  and  CA_103 
REMARK   43  A    between atoms: CA_103  and  CB_106 
REMARK   44  A    between atoms: CA_103  and  C_104 
REMARK       I    between atoms: C_104  and  N_115 
REMARK   45  A    between atoms: CB_106  and  CG_107 
REMARK   46  A    between atoms: CG_107  and  CD_108 
REMARK   47  A    between atoms: CD_108  and  CE_109 
REMARK   48  A    between atoms: CE_109  and  NZ_110 
REMARK   49  A    between atoms: N_115  and  CA_116 
REMARK   50  A    between atoms: CA_116  and  C_117 
REMARK   51  A    between atoms: CA_116  and  CB_119 
REMARK       I    between atoms: C_117  and  N_128 
REMARK   52  A    between atoms: CB_119  and  CG_120 
REMARK   53  A    between atoms: CG_120  and  CD_121 
REMARK   54  A    between atoms: CD_121  and  CE_122 
REMARK   55  A    between atoms: CE_122  and  NZ_123 
REMARK   56  A    between atoms: N_128  and  CA_129 
REMARK   57  A    between atoms: CA_129  and  C_130 
REMARK   58  A    between atoms: CA_129  and  CB_132 
REMARK       I    between atoms: C_130  and  N_139 
REMARK   59  A    between atoms: CB_132  and  CG_133 
REMARK       I    between atoms: CG_133  and  ND2_135 
REMARK   60  A    between atoms: N_139  and  CA_140 
REMARK   61  A    between atoms: CA_140  and  C_141 
REMARK   62  A    between atoms: CA_140  and  CB_143 
REMARK       I    between atoms: C_141  and  N_148 
REMARK   63  A    between atoms: CB_143  and  CG_144 
REMARK   64  A    between atoms: CG_144  and  SD_145 
REMARK   65  A    between atoms: N_148  and  CA_149 
REMARK   66  A    between atoms: CA_149  and  C_150 
REMARK       I    between atoms: C_150  and  N_154 
REMARK   67  A    between atoms: N_154  and  CA_155 
REMARK   68  A    between atoms: CA_155  and  C_156 
REMARK   69  A    between atoms: CA_155  and  CB_158 
REMARK       I    between atoms: C_156  and  N_166 
REMARK   70  A    between atoms: CB_158  and  CG_159 
REMARK   71  A    between atoms: N_166  and  CA_167 
REMARK   72  A    between atoms: CA_167  and  CB_170 
REMARK   73  A    between atoms: CA_167  and  C_168 
REMARK       I    between atoms: C_168  and  N_175 
REMARK   74  A    between atoms: CB_170  and  CG1_171 
REMARK   75  A    between atoms: N_175  and  CA_176 
REMARK   76  A    between atoms: CA_176  and  CB_179 
REMARK   77  A    between atoms: CA_176  and  C_177 
REMARK   78  A    between atoms: CB_179  and  CG_180 
REMARK   79  A    between atoms: CG_180  and  CD_181 
REMARK   80  A    between atoms: CD_181  and  NE_182 
REMARK       I    between atoms: NE_182  and  CZ_183 
REMARK       I    between atoms: CZ_183  and  NH1_184 
ROOT
ATOM      1  N   PHE     1      69.999  45.108  40.751  1.00  0.00    -0.057 N 
ATOM      2  H1  PHE     1      70.618  45.817  41.073  1.00 99.99     0.276 HD
ATOM      3  H2  PHE     1      69.384  44.851  41.497  1.00 99.99     0.276 HD
ATOM      4  H3  PHE     1      70.501  44.263  40.562  1.00 99.99     0.276 HD
ENDROOT
BRANCH   1   5
ATOM      5  CA  PHE     1      69.228  45.566  39.551  1.00  0.00     0.259 C 
BRANCH   5   6
ATOM      6  C   PHE     1      68.916  44.578  38.388  1.00  0.00     0.259 C 
ATOM      7  N   LEU     2      68.298  45.046  37.298  1.00  0.00    -0.338 N 
ATOM      8  H   LEU     2      68.183  46.022  37.119  1.00 99.99     0.164 HD
ATOM      9  O   PHE     1      69.435  43.461  38.377  1.00  0.00    -0.271 OA
BRANCH   7  10
ATOM     10  CA  LEU     2      67.808  44.143  36.229  1.00  0.00     0.160 C 
BRANCH  10  11
ATOM     11  C   LEU     2      66.600  43.245  36.607  1.00  0.00     0.254 C 
ATOM     12  N   PRO     3      65.329  43.658  36.402  1.00  0.00    -0.312 N 
ATOM     13  CD  PRO     3      64.867  45.044  36.171  1.00  0.00     0.105 C 
ATOM     14  CA  PRO     3      64.160  42.788  36.636  1.00  0.00     0.163 C 
ATOM     15  CG  PRO     3      63.403  45.044  36.612  1.00  0.00     0.027 C 
ATOM     16  CB  PRO     3      62.940  43.632  36.264  1.00  0.00     0.034 C 
ATOM     17  O   LEU     2      66.856  42.084  36.919  1.00  0.00    -0.270 OA
BRANCH  14  18
ATOM     18  C   PRO     3      64.198  41.485  35.820  1.00  0.00     0.251 C 
ATOM     19  O   PRO     3      64.251  41.563  34.596  1.00  0.00    -0.271 OA
ATOM     20  N   LYS     4      63.977  40.337  36.471  1.00  0.00    -0.338 N 
ATOM     21  H   LYS     4      63.877  40.306  37.466  1.00 99.99     0.164 HD
BRANCH  20  22
ATOM     22  CA  LYS     4      63.925  39.016  35.811  1.00  0.00     0.159 C 
BRANCH  22  23
ATOM     23  C   LYS     4      62.532  38.699  35.232  1.00  0.00     0.251 C 
ATOM     24  N   LEU     5      61.628  38.188  36.073  1.00  0.00    -0.338 N 
ATOM     25  H   LEU     5      61.873  37.904  37.005  1.00 99.99     0.164 HD
ATOM     26  O   LYS     4      62.258  39.038  34.081  1.00  0.00    -0.271 OA
BRANCH  24  27
ATOM     27  CA  LEU     5      60.227  37.942  35.686  1.00  0.00     0.159 C 
BRANCH  27  28
ATOM     28  C   LEU     5      59.238  38.915  36.334  1.00  0.00     0.251 C 
ATOM     29  N   PHE     6      58.790  38.594  37.552  1.00  0.00    -0.337 N 
ATOM     30  H   PHE     6      59.015  37.714  37.984  1.00 99.99     0.164 HD
ATOM     31  O   LEU     5      59.055  40.019  35.820  1.00  0.00    -0.271 OA
BRANCH  29  32
ATOM     32  CA  PHE     6      57.903  39.468  38.341  1.00  0.00     0.164 C 
BRANCH  32  33
ATOM     33  CB  PHE     6      56.974  38.618  39.216  1.00  0.00     0.056 C 
BRANCH  33  34
ATOM     34  CG  PHE     6      55.577  38.447  38.587  1.00  0.00    -0.044 A 
ATOM     35  CD1 PHE     6      54.496  38.125  39.384  1.00  0.00     0.008 A 
ATOM     36  CE1 PHE     6      53.235  37.970  38.823  1.00  0.00     0.001 A 
ATOM     37  CZ  PHE     6      53.058  38.146  37.448  1.00  0.00     0.000 A 
ATOM     38  CE2 PHE     6      54.154  38.479  36.649  1.00  0.00     0.001 A 
ATOM     39  CD2 PHE     6      55.413  38.624  37.226  1.00  0.00     0.008 A 
ENDBRANCH  33  34
ENDBRANCH  32  33
BRANCH  32  40
ATOM     40  C   PHE     6      58.711  40.479  39.173  1.00  0.00     0.251 C 
ATOM     41  O   PHE     6      58.510  40.543  40.383  1.00  0.00    -0.271 OA
ATOM     42  N   ALA     7      59.365  41.427  38.498  1.00  0.00    -0.338 N 
ATOM     43  H   ALA     7      59.409  41.420  37.489  1.00 99.99     0.164 HD
BRANCH  42  44
ATOM     44  CA  ALA     7      60.115  42.520  39.138  1.00  0.00     0.159 C 
ATOM     45  CB  ALA     7      59.213  43.743  39.333  1.00  0.00     0.034 C 
BRANCH  44  46
ATOM     46  C   ALA     7      60.756  42.117  40.479  1.00  0.00     0.251 C 
ATOM     47  O   ALA     7      60.561  42.830  41.462  1.00  0.00    -0.271 OA
ATOM     48  N   LYS     8      61.636  41.111  40.475  1.00  0.00    -0.338 N 
ATOM     49  H   LYS     8      61.784  40.530  39.665  1.00 99.99     0.164 HD
BRANCH  48  50
ATOM     50  CA  LYS     8      62.388  40.702  41.677  1.00  0.00     0.159 C 
BRANCH  50  51
ATOM     51  C   LYS     8      61.481  40.045  42.737  1.00  0.00     0.251 C 
ATOM     52  O   LYS     8      61.302  38.830  42.708  1.00  0.00    -0.271 OA
ATOM     53  N   ILE     9      60.810  40.860  43.554  1.00  0.00    -0.338 N 
ATOM     54  H   ILE     9      60.913  41.861  43.496  1.00 99.99     0.164 HD
BRANCH  53  55
ATOM     55  CA  ILE     9      59.889  40.386  44.608  1.00  0.00     0.159 C 
BRANCH  55  56
ATOM     56  CB  ILE     9      60.215  41.046  45.968  1.00  0.00     0.029 C 
ATOM     57  CG2 ILE     9      60.098  40.041  47.126  1.00  0.00     0.002 C 
BRANCH  56  58
ATOM     58  CG1 ILE     9      61.633  41.644  45.932  1.00  0.00     0.002 C 
ATOM     59  CD  ILE     9      61.682  43.148  45.627  1.00  0.00     0.000 C 
ENDBRANCH  56  58
ENDBRANCH  55  56
BRANCH  55  60
ATOM     60  C   ILE     9      58.418  40.566  44.174  1.00  0.00     0.251 C 
ATOM     61  N   THR    10      57.597  39.537  44.383  1.00  0.00    -0.336 N 
ATOM     62  H   THR    10      57.924  38.654  44.749  1.00 99.99     0.164 HD
ATOM     63  O   ILE     9      58.020  41.676  43.828  1.00  0.00    -0.271 OA
BRANCH  61  64
ATOM     64  CA  THR    10      56.163  39.551  44.034  1.00  0.00     0.186 C 
BRANCH  64  65
ATOM     65  CB  THR    10      55.759  38.293  43.245  1.00  0.00     0.140 C 
ATOM     66  CG2 THR    10      56.509  37.042  43.721  1.00  0.00     0.034 C 
BRANCH  65  67
ATOM     67  OG1 THR    10      54.354  38.070  43.424  1.00  0.00    -0.382 OA
ATOM     68  HG1 THR    10      53.839  38.906  43.224  1.00 99.99     0.210 HD
ENDBRANCH  65  67
ENDBRANCH  64  65
BRANCH  64  69
ATOM     69  C   THR    10      55.286  39.748  45.286  1.00  0.00     0.253 C 
ATOM     70  O   THR    10      54.407  40.604  45.242  1.00  0.00    -0.270 OA
ATOM     71  N   LYS    11      55.649  39.135  46.418  1.00  0.00    -0.337 N 
ATOM     72  H   LYS    11      56.413  38.480  46.467  1.00 99.99     0.164 HD
BRANCH  71  73
ATOM     73  CA  LYS    11      54.931  39.347  47.690  1.00  0.00     0.159 C 
BRANCH  73  74
ATOM     74  CB  LYS    11      54.302  38.062  48.241  1.00  0.00     0.032 C 
BRANCH  74  75
ATOM     75  CG  LYS    11      52.785  38.197  48.396  1.00  0.00     0.004 C 
BRANCH  75  76
ATOM     76  CD  LYS    11      52.168  36.882  48.877  1.00  0.00     0.032 C 
BRANCH  76  77
ATOM     77  CE  LYS    11      51.701  37.002  50.331  1.00  0.00     0.206 C 
BRANCH  77  78
ATOM     78  NZ  LYS    11      50.934  35.820  50.744  1.00  0.00    -0.064 N 
ATOM     79  HZ3 LYS    11      51.523  35.209  51.275  1.00 99.99     0.275 HD
ATOM     80  HZ2 LYS    11      50.599  35.336  49.935  1.00 99.99     0.275 HD
ATOM     81  HZ1 LYS    11      50.158  36.106  51.308  1.00 99.99     0.275 HD
ENDBRANCH  77  78
ENDBRANCH  76  77
ENDBRANCH  75  76
ENDBRANCH  74  75
ENDBRANCH  73  74
BRANCH  73  82
ATOM     82  C   LYS    11      55.790  40.013  48.781  1.00  0.00     0.251 C 
ATOM     83  O   LYS    11      56.732  40.725  48.441  1.00  0.00    -0.271 OA
ATOM     84  N   LYS    12      55.585  39.641  50.046  1.00  0.00    -0.338 N 
ATOM     85  H   LYS    12      54.838  39.013  50.312  1.00 99.99     0.164 HD
BRANCH  84  86
ATOM     86  CA  LYS    12      56.393  40.151  51.167  1.00  0.00     0.159 C 
BRANCH  86  87
ATOM     87  C   LYS    12      56.521  39.103  52.290  1.00  0.00     0.251 C 
ATOM     88  O   LYS    12      55.822  39.204  53.296  1.00  0.00    -0.271 OA
ATOM     89  N   ASN    13      57.536  38.244  52.198  1.00  0.00    -0.337 N 
ATOM     90  H   ASN    13      58.123  38.219  51.375  1.00 99.99     0.164 HD
BRANCH  89  91
ATOM     91  CA  ASN    13      57.810  37.194  53.194  1.00  0.00     0.169 C 
BRANCH  91  92
ATOM     92  C   ASN    13      58.929  37.613  54.174  1.00  0.00     0.251 C 
ATOM     93  N   MET    14      59.104  36.821  55.233  1.00  0.00    -0.337 N 
ATOM     94  H   MET    14      58.478  36.050  55.406  1.00 99.99     0.164 HD
ATOM     95  O   ASN    13      59.745  38.472  53.847  1.00  0.00    -0.271 OA
BRANCH  93  96
ATOM     96  CA  MET    14      60.155  36.962  56.262  1.00  0.00     0.160 C 
BRANCH  96  97
ATOM     97  C   MET    14      60.541  38.418  56.614  1.00  0.00     0.251 C 
ATOM     98  O   MET    14      59.928  39.020  57.494  1.00  0.00    -0.271 OA
ATOM     99  N   ALA    15      61.580  38.951  55.966  1.00  0.00    -0.338 N 
ATOM    100  H   ALA    15      62.261  38.365  55.514  1.00 99.99     0.164 HD
BRANCH  99 101
ATOM    101  CA  ALA    15      61.963  40.373  56.054  1.00  0.00     0.159 C 
ATOM    102  CB  ALA    15      63.111  40.534  57.056  1.00  0.00     0.034 C 
BRANCH 101 103
ATOM    103  C   ALA    15      62.360  41.001  54.701  1.00  0.00     0.251 C 
ATOM    104  O   ALA    15      62.914  42.097  54.662  1.00  0.00    -0.271 OA
ATOM    105  N   HIS    16      62.148  40.255  53.617  1.00  0.00    -0.337 N 
ATOM    106  H   HIS    16      61.920  39.279  53.713  1.00 99.99     0.164 HD
BRANCH 105 107
ATOM    107  CA  HIS    16      62.387  40.679  52.224  1.00  0.00     0.165 C 
BRANCH 107 108
ATOM    108  C   HIS    16      63.757  40.235  51.663  1.00  0.00     0.251 C 
ATOM    109  O   HIS    16      64.515  39.549  52.348  1.00  0.00    -0.271 OA
ATOM    110  N   ILE    17      64.036  40.578  50.404  1.00  0.00    -0.338 N 
ATOM    111  H   ILE    17      63.329  40.997  49.828  1.00 99.99     0.164 HD
BRANCH 110 112
ATOM    112  CA  ILE    17      65.271  40.182  49.684  1.00  0.00     0.159 C 
BRANCH 112 113
ATOM    113  CB  ILE    17      64.921  39.035  48.698  1.00  0.00     0.029 C 
ATOM    114  CG2 ILE    17      64.525  39.527  47.291  1.00  0.00     0.002 C 
BRANCH 113 115
ATOM    115  CG1 ILE    17      66.105  38.055  48.600  1.00  0.00     0.002 C 
ATOM    116  CD  ILE    17      65.728  36.632  48.159  1.00  0.00     0.000 C 
ENDBRANCH 113 115
ENDBRANCH 112 113
BRANCH 112 117
ATOM    117  C   ILE    17      66.020  41.363  49.022  1.00  0.00     0.251 C 
ATOM    118  O   ILE    17      67.184  41.236  48.643  1.00  0.00    -0.271 OA
ATOM    119  N   ARG    18      65.389  42.534  48.967  1.00  0.00    -0.336 N 
ATOM    120  H   ARG    18      64.628  42.746  49.578  1.00 99.99     0.164 HD
BRANCH 119 121
ATOM    121  CA  ARG    18      65.892  43.683  48.182  1.00  0.00     0.168 C 
BRANCH 121 122
ATOM    122  CB  ARG    18      65.134  43.658  46.854  1.00  0.00     0.035 C 
BRANCH 122 123
ATOM    123  CG  ARG    18      66.043  43.601  45.624  1.00  0.00     0.027 C 
BRANCH 123 124
ATOM    124  CD  ARG    18      67.505  43.463  46.051  1.00  0.00     0.116 C 
BRANCH 124 125
ATOM    125  NE  ARG    18      68.350  43.227  44.874  1.00  0.00    -0.212 N 
ATOM    126  CZ  ARG    18      69.685  43.225  44.849  1.00  0.00     0.666 C 
ATOM    127  NH1 ARG    18      70.410  43.546  45.908  1.00  0.00    -0.235 N 
ATOM    128  NH2 ARG    18      70.313  42.718  43.802  1.00  0.00    -0.235 N 
ATOM    129 2HH1 ARG    18      69.934  43.823  46.746  1.00 99.99     0.174 HD
ATOM    130 1HH1 ARG    18      71.402  43.535  45.866  1.00 99.99     0.174 HD
ATOM    131 2HH2 ARG    18      69.777  42.368  43.032  1.00 99.99     0.174 HD
ATOM    132 1HH2 ARG    18      71.306  42.706  43.773  1.00 99.99     0.174 HD
ATOM    133  HE  ARG    18      67.859  43.158  44.006  1.00 99.99     0.178 HD
ENDBRANCH 124 125
ENDBRANCH 123 124
ENDBRANCH 122 123
ENDBRANCH 121 122
BRANCH 121 134
ATOM    134  C   ARG    18      65.679  45.030  48.896  1.00  0.00     0.206 C 
ATOM    135  O   ARG    18      66.655  45.536  49.497  1.00 99.99    -0.646 OA
ATOM    136  OXT ARG    18      64.574  45.578  48.713  1.00 99.99    -0.646 OA
ENDBRANCH 121 134
ENDBRANCH 119 121
ENDBRANCH 112 117
ENDBRANCH 110 112
ENDBRANCH 107 108
BRANCH 107 137
ATOM    137  CB  HIS    16      62.225  42.209  52.180  1.00  0.00     0.077 C 
BRANCH 137 138
ATOM    138  CG  HIS    16      61.835  42.769  50.804  1.00  0.00     0.057 A 
ATOM    139  CD2 HIS    16      60.809  42.367  50.060  1.00  0.00     0.113 A 
ATOM    140  NE2 HIS    16      60.638  43.241  49.072  1.00  0.00    -0.223 NA
ATOM    141  CE1 HIS    16      61.580  44.172  49.193  1.00  0.00     0.175 A 
ATOM    142  ND1 HIS    16      62.336  43.867  50.243  1.00  0.00    -0.338 N 
ATOM    143  HD1 HIS    16      63.199  44.311  50.486  1.00 99.99     0.167 HD
ENDBRANCH 137 138
ENDBRANCH 107 137
ENDBRANCH 105 107
ENDBRANCH 101 103
ENDBRANCH  99 101
ENDBRANCH  96  97
BRANCH  96 144
ATOM    144  CB  MET    14      61.332  36.095  55.783  1.00  0.00     0.043 C 
BRANCH 144 145
ATOM    145  CG  MET    14      62.485  35.783  56.746  1.00  0.00     0.060 C 
BRANCH 145 146
ATOM    146  SD  MET    14      62.910  34.018  56.990  1.00  0.00    -0.139 SA
ATOM    147  CE  MET    14      64.075  34.078  58.334  1.00  0.00     0.069 C 
ENDBRANCH 145 146
ENDBRANCH 144 145
ENDBRANCH  96 144
ENDBRANCH  93  96
ENDBRANCH  91  92
BRANCH  91 148
ATOM    148  CB  ASN    13      58.159  35.870  52.490  1.00  0.00     0.119 C 
BRANCH 148 149
ATOM    149  CG  ASN    13      59.504  35.850  51.746  1.00  0.00     0.230 C 
ATOM    150  ND2 ASN    13      59.782  36.925  51.038  1.00  0.00    -0.369 N 
ATOM    151 2HD2 ASN    13      59.139  37.682  50.988  1.00 99.99     0.159 HD
ATOM    152 1HD2 ASN    13      60.650  36.922  50.553  1.00 99.99     0.159 HD
ATOM    153  OD1 ASN    13      60.280  34.906  51.733  1.00  0.00    -0.273 OA
ENDBRANCH 148 149
ENDBRANCH  91 148
ENDBRANCH  89  91
ENDBRANCH  86  87
BRANCH  86 154
ATOM    154  CB  LYS    12      55.820  41.469  51.715  1.00  0.00     0.032 C 
BRANCH 154 155
ATOM    155  CG  LYS    12      56.808  42.621  51.502  1.00  0.00     0.004 C 
BRANCH 155 156
ATOM    156  CD  LYS    12      57.599  42.981  52.760  1.00  0.00     0.032 C 
BRANCH 156 157
ATOM    157  CE  LYS    12      58.750  41.987  52.921  1.00  0.00     0.206 C 
BRANCH 157 158
ATOM    158  NZ  LYS    12      58.746  41.352  54.247  1.00  0.00    -0.064 N 
ATOM    159  HZ3 LYS    12      59.414  41.807  54.837  1.00 99.99     0.275 HD
ATOM    160  HZ2 LYS    12      58.986  40.386  54.151  1.00 99.99     0.275 HD
ATOM    161  HZ1 LYS    12      57.834  41.434  54.649  1.00 99.99     0.275 HD
ENDBRANCH 157 158
ENDBRANCH 156 157
ENDBRANCH 155 156
ENDBRANCH 154 155
ENDBRANCH  86 154
ENDBRANCH  84  86
ENDBRANCH  73  82
ENDBRANCH  71  73
ENDBRANCH  64  69
ENDBRANCH  61  64
ENDBRANCH  55  60
ENDBRANCH  53  55
ENDBRANCH  50  51
BRANCH  50 162
ATOM    162  CB  LYS     8      63.167  41.888  42.267  1.00  0.00     0.032 C 
BRANCH 162 163
ATOM    163  CG  LYS     8      64.447  41.432  42.979  1.00  0.00     0.004 C 
BRANCH 163 164
ATOM    164  CD  LYS     8      65.720  41.829  42.230  1.00  0.00     0.032 C 
BRANCH 164 165
ATOM    165  CE  LYS     8      66.026  40.801  41.135  1.00  0.00     0.206 C 
BRANCH 165 166
ATOM    166  NZ  LYS     8      65.858  41.353  39.784  1.00  0.00    -0.064 N 
ATOM    167  HZ3 LYS     8      65.292  42.177  39.823  1.00 99.99     0.275 HD
ATOM    168  HZ1 LYS     8      66.756  41.588  39.409  1.00 99.99     0.275 HD
ATOM    169  HZ2 LYS     8      65.422  40.674  39.193  1.00 99.99     0.275 HD
ENDBRANCH 165 166
ENDBRANCH 164 165
ENDBRANCH 163 164
ENDBRANCH 162 163
ENDBRANCH  50 162
ENDBRANCH  48  50
ENDBRANCH  44  46
ENDBRANCH  42  44
ENDBRANCH  32  40
ENDBRANCH  29  32
ENDBRANCH  27  28
BRANCH  27 170
ATOM    170  CB  LEU     5      59.817  36.485  35.942  1.00  0.00     0.032 C 
BRANCH 170 171
ATOM    171  CG  LEU     5      59.702  35.667  34.649  1.00  0.00     0.002 C 
ATOM    172  CD2 LEU     5      58.806  34.436  34.837  1.00  0.00     0.000 C 
ATOM    173  CD1 LEU     5      61.095  35.220  34.204  1.00  0.00     0.000 C 
ENDBRANCH 170 171
ENDBRANCH  27 170
ENDBRANCH  24  27
ENDBRANCH  22  23
BRANCH  22 174
ATOM    174  CB  LYS     4      64.389  37.920  36.787  1.00  0.00     0.032 C 
BRANCH 174 175
ATOM    175  CG  LYS     4      64.533  38.424  38.230  1.00  0.00     0.004 C 
BRANCH 175 176
ATOM    176  CD  LYS     4      63.526  37.775  39.187  1.00  0.00     0.032 C 
BRANCH 176 177
ATOM    177  CE  LYS     4      64.134  37.614  40.585  1.00  0.00     0.206 C 
BRANCH 177 178
ATOM    178  NZ  LYS     4      63.185  37.035  41.553  1.00  0.00    -0.064 N 
ATOM    179  HZ1 LYS     4      63.434  36.082  41.730  1.00 99.99     0.275 HD
ATOM    180  HZ2 LYS     4      63.223  37.545  42.412  1.00 99.99     0.275 HD
ATOM    181  HZ3 LYS     4      62.258  37.066  41.182  1.00 99.99     0.275 HD
ENDBRANCH 177 178
ENDBRANCH 176 177
ENDBRANCH 175 176
ENDBRANCH 174 175
ENDBRANCH  22 174
ENDBRANCH  20  22
ENDBRANCH  14  18
ENDBRANCH  10  11
BRANCH  10 182
ATOM    182  CB  LEU     2      68.974  43.370  35.587  1.00  0.00     0.032 C 
BRANCH 182 183
ATOM    183  CG  LEU     2      69.851  44.198  34.634  1.00  0.00     0.002 C 
ATOM    184  CD2 LEU     2      70.033  43.446  33.314  1.00  0.00     0.000 C 
ATOM    185  CD1 LEU     2      71.216  44.533  35.248  1.00  0.00     0.000 C 
ENDBRANCH 182 183
ENDBRANCH  10 182
ENDBRANCH   7  10
ENDBRANCH   5   6
BRANCH   5 186
ATOM    186  CB  PHE     1      69.889  46.796  38.925  1.00  0.00     0.064 C 
BRANCH 186 187
ATOM    187  CG  PHE     1      68.934  47.983  38.764  1.00  0.00    -0.044 A 
ATOM    188  CD1 PHE     1      67.929  48.172  39.693  1.00  0.00     0.008 A 
ATOM    189  CE1 PHE     1      67.032  49.210  39.538  1.00  0.00     0.001 A 
ATOM    190  CZ  PHE     1      67.130  50.064  38.446  1.00  0.00     0.000 A 
ATOM    191  CE2 PHE     1      68.145  49.874  37.502  1.00  0.00     0.001 A 
ATOM    192  CD2 PHE     1      69.055  48.830  37.671  1.00  0.00     0.008 A 
ENDBRANCH 186 187
ENDBRANCH   5 186
ENDBRANCH   1   5
TORSDOF 80
ENDMDL
MODEL 8
REMARK VINA RESULT:      -3.1      3.079      8.456
REMARK WARNING: 32 MAX_TORS EXCEEDED!!!
REMARK  80 active torsions:
REMARK  status: ('A' for Active; 'I' for Inactive)
REMARK    1  A    between atoms: N_1  and  CA_2 
REMARK    2  A    between atoms: CA_2  and  C_3 
REMARK    3  A    between atoms: CA_2  and  CB_5 
REMARK       I    between atoms: C_3  and  N_15 
REMARK    4  A    between atoms: CB_5  and  CG_6 
REMARK    5  A    between atoms: N_15  and  CA_16 
REMARK    6  A    between atoms: CA_16  and  C_17 
REMARK    7  A    between atoms: CA_16  and  CB_19 
REMARK       I    between atoms: C_17  and  N_24 
REMARK    8  A    between atoms: CB_19  and  CG_20 
REMARK    9  A    between atoms: CA_25  and  C_26 
REMARK       I    between atoms: C_26  and  N_31 
REMARK   10  A    between atoms: N_31  and  CA_32 
REMARK   11  A    between atoms: CA_32  and  C_33 
REMARK   12  A    between atoms: CA_32  and  CB_35 
REMARK       I    between atoms: C_33  and  N_44 
REMARK   13  A    between atoms: CB_35  and  CG_36 
REMARK   14  A    between atoms: CG_36  and  CD_37 
REMARK   15  A    between atoms: CD_37  and  CE_38 
REMARK   16  A    between atoms: CE_38  and  NZ_39 
REMARK   17  A    between atoms: N_44  and  CA_45 
REMARK   18  A    between atoms: CA_45  and  C_46 
REMARK   19  A    between atoms: CA_45  and  CB_48 
REMARK       I    between atoms: C_46  and  N_53 
REMARK   20  A    between atoms: CB_48  and  CG_49 
REMARK   21  A    between atoms: N_53  and  CA_54 
REMARK   22  A    between atoms: CA_54  and  CB_57 
REMARK   23  A    between atoms: CA_54  and  C_55 
REMARK       I    between atoms: C_55  and  N_65 
REMARK   24  A    between atoms: CB_57  and  CG_58 
REMARK   25  A    between atoms: N_65  and  CA_66 
REMARK   26  A    between atoms: CA_66  and  C_67 
REMARK       I    between atoms: C_67  and  N_71 
REMARK   27  A    between atoms: N_71  and  CA_72 
REMARK   28  A    between atoms: CA_72  and  C_73 
REMARK   29  A    between atoms: CA_72  and  CB_75 
REMARK       I    between atoms: C_73  and  N_84 
REMARK   30  A    between atoms: CB_75  and  CG_76 
REMARK   31  A    between atoms: CG_76  and  CD_77 
REMARK   32  A    between atoms: CD_77  and  CE_78 
REMARK   33  A    between atoms: CE_78  and  NZ_79 
REMARK   34  A    between atoms: N_84  and  CA_85 
REMARK   35  A    between atoms: CA_85  and  CB_88 
REMARK   36  A    between atoms: CA_85  and  C_86 
REMARK       I    between atoms: C_86  and  N_93 
REMARK   37  A    between atoms: CB_88  and  CG1_89 
REMARK   38  A    between atoms: N_93  and  CA_94 
REMARK   39  A    between atoms: CA_94  and  CB_97 
REMARK   40  A    between atoms: CA_94  and  C_95 
REMARK       I    between atoms: C_95  and  N_102 
REMARK   41  A    between atoms: CB_97  and  OG1_98 
REMARK   42  A    between atoms: N_102  and  CA_103 
REMARK   43  A    between atoms: CA_103  and  CB_106 
REMARK   44  A    between atoms: CA_103  and  C_104 
REMARK       I    between atoms: C_104  and  N_115 
REMARK   45  A    between atoms: CB_106  and  CG_107 
REMARK   46  A    between atoms: CG_107  and  CD_108 
REMARK   47  A    between atoms: CD_108  and  CE_109 
REMARK   48  A    between atoms: CE_109  and  NZ_110 
REMARK   49  A    between atoms: N_115  and  CA_116 
REMARK   50  A    between atoms: CA_116  and  C_117 
REMARK   51  A    between atoms: CA_116  and  CB_119 
REMARK       I    between atoms: C_117  and  N_128 
REMARK   52  A    between atoms: CB_119  and  CG_120 
REMARK   53  A    between atoms: CG_120  and  CD_121 
REMARK   54  A    between atoms: CD_121  and  CE_122 
REMARK   55  A    between atoms: CE_122  and  NZ_123 
REMARK   56  A    between atoms: N_128  and  CA_129 
REMARK   57  A    between atoms: CA_129  and  C_130 
REMARK   58  A    between atoms: CA_129  and  CB_132 
REMARK       I    between atoms: C_130  and  N_139 
REMARK   59  A    between atoms: CB_132  and  CG_133 
REMARK       I    between atoms: CG_133  and  ND2_135 
REMARK   60  A    between atoms: N_139  and  CA_140 
REMARK   61  A    between atoms: CA_140  and  C_141 
REMARK   62  A    between atoms: CA_140  and  CB_143 
REMARK       I    between atoms: C_141  and  N_148 
REMARK   63  A    between atoms: CB_143  and  CG_144 
REMARK   64  A    between atoms: CG_144  and  SD_145 
REMARK   65  A    between atoms: N_148  and  CA_149 
REMARK   66  A    between atoms: CA_149  and  C_150 
REMARK       I    between atoms: C_150  and  N_154 
REMARK   67  A    between atoms: N_154  and  CA_155 
REMARK   68  A    between atoms: CA_155  and  C_156 
REMARK   69  A    between atoms: CA_155  and  CB_158 
REMARK       I    between atoms: C_156  and  N_166 
REMARK   70  A    between atoms: CB_158  and  CG_159 
REMARK   71  A    between atoms: N_166  and  CA_167 
REMARK   72  A    between atoms: CA_167  and  CB_170 
REMARK   73  A    between atoms: CA_167  and  C_168 
REMARK       I    between atoms: C_168  and  N_175 
REMARK   74  A    between atoms: CB_170  and  CG1_171 
REMARK   75  A    between atoms: N_175  and  CA_176 
REMARK   76  A    between atoms: CA_176  and  CB_179 
REMARK   77  A    between atoms: CA_176  and  C_177 
REMARK   78  A    between atoms: CB_179  and  CG_180 
REMARK   79  A    between atoms: CG_180  and  CD_181 
REMARK   80  A    between atoms: CD_181  and  NE_182 
REMARK       I    between atoms: NE_182  and  CZ_183 
REMARK       I    between atoms: CZ_183  and  NH1_184 
ROOT
ATOM      1  N   PHE     1      70.048  45.089  40.790  1.00  0.00    -0.057 N 
ATOM      2  H1  PHE     1      70.666  45.865  40.860  1.00 99.99     0.276 HD
ATOM      3  H2  PHE     1      69.552  44.989  41.653  1.00 99.99     0.276 HD
ATOM      4  H3  PHE     1      70.564  44.235  40.718  1.00 99.99     0.276 HD
ENDROOT
BRANCH   1   5
ATOM      5  CA  PHE     1      69.101  45.253  39.640  1.00  0.00     0.259 C 
BRANCH   5   6
ATOM      6  C   PHE     1      68.889  44.096  38.619  1.00  0.00     0.259 C 
ATOM      7  N   LEU     2      68.762  44.401  37.324  1.00  0.00    -0.338 N 
ATOM      8  H   LEU     2      68.968  45.308  36.959  1.00 99.99     0.164 HD
ATOM      9  O   PHE     1      69.073  42.929  38.970  1.00  0.00    -0.271 OA
BRANCH   7  10
ATOM     10  CA  LEU     2      68.383  43.383  36.315  1.00  0.00     0.160 C 
BRANCH  10  11
ATOM     11  C   LEU     2      67.077  42.597  36.610  1.00  0.00     0.254 C 
ATOM     12  N   PRO     3      65.863  43.123  36.329  1.00  0.00    -0.312 N 
ATOM     13  CD  PRO     3      65.544  44.546  36.080  1.00  0.00     0.105 C 
ATOM     14  CA  PRO     3      64.609  42.362  36.483  1.00  0.00     0.163 C 
ATOM     15  CG  PRO     3      64.061  44.677  36.428  1.00  0.00     0.027 C 
ATOM     16  CB  PRO     3      63.495  43.314  36.042  1.00  0.00     0.034 C 
ATOM     17  O   LEU     2      67.207  41.417  36.929  1.00  0.00    -0.270 OA
BRANCH  14  18
ATOM     18  C   PRO     3      64.580  41.062  35.662  1.00  0.00     0.251 C 
ATOM     19  O   PRO     3      64.454  41.143  34.443  1.00  0.00    -0.271 OA
ATOM     20  N   LYS     4      64.501  39.906  36.330  1.00  0.00    -0.338 N 
ATOM     21  H   LYS     4      64.547  39.870  37.328  1.00 99.99     0.164 HD
BRANCH  20  22
ATOM     22  CA  LYS     4      64.407  38.584  35.675  1.00  0.00     0.159 C 
BRANCH  22  23
ATOM     23  C   LYS     4      62.989  37.985  35.754  1.00  0.00     0.251 C 
ATOM     24  N   LEU     5      62.297  38.210  36.875  1.00  0.00    -0.338 N 
ATOM     25  H   LEU     5      62.718  38.640  37.680  1.00 99.99     0.164 HD
ATOM     26  O   LYS     4      62.499  37.445  34.762  1.00  0.00    -0.271 OA
BRANCH  24  27
ATOM     27  CA  LEU     5      60.893  37.795  37.042  1.00  0.00     0.159 C 
BRANCH  27  28
ATOM     28  C   LEU     5      59.946  38.960  37.346  1.00  0.00     0.251 C 
ATOM     29  N   PHE     6      59.142  38.821  38.404  1.00  0.00    -0.337 N 
ATOM     30  H   PHE     6      59.090  37.959  38.921  1.00 99.99     0.164 HD
ATOM     31  O   LEU     5      60.098  40.028  36.752  1.00  0.00    -0.271 OA
BRANCH  29  32
ATOM     32  CA  PHE     6      58.238  39.886  38.875  1.00  0.00     0.164 C 
BRANCH  32  33
ATOM     33  CB  PHE     6      57.017  39.269  39.566  1.00  0.00     0.056 C 
BRANCH  33  34
ATOM     34  CG  PHE     6      57.161  37.746  39.754  1.00  0.00    -0.044 A 
ATOM     35  CD1 PHE     6      57.898  37.246  40.810  1.00  0.00     0.008 A 
ATOM     36  CE1 PHE     6      58.031  35.876  40.984  1.00  0.00     0.001 A 
ATOM     37  CZ  PHE     6      57.412  34.996  40.091  1.00  0.00     0.000 A 
ATOM     38  CE2 PHE     6      56.662  35.508  39.030  1.00  0.00     0.001 A 
ATOM     39  CD2 PHE     6      56.544  36.885  38.865  1.00  0.00     0.008 A 
ENDBRANCH  33  34
ENDBRANCH  32  33
BRANCH  32  40
ATOM     40  C   PHE     6      58.975  40.881  39.788  1.00  0.00     0.251 C 
ATOM     41  O   PHE     6      58.743  40.859  40.994  1.00  0.00    -0.271 OA
ATOM     42  N   ALA     7      59.597  41.899  39.191  1.00  0.00    -0.338 N 
ATOM     43  H   ALA     7      59.664  41.958  38.185  1.00 99.99     0.164 HD
BRANCH  42  44
ATOM     44  CA  ALA     7      60.276  42.985  39.916  1.00  0.00     0.159 C 
ATOM     45  CB  ALA     7      59.323  44.167  40.122  1.00  0.00     0.034 C 
BRANCH  44  46
ATOM     46  C   ALA     7      60.867  42.541  41.267  1.00  0.00     0.251 C 
ATOM     47  O   ALA     7      60.556  43.166  42.279  1.00  0.00    -0.271 OA
ATOM     48  N   LYS     8      61.824  41.607  41.255  1.00  0.00    -0.338 N 
ATOM     49  H   LYS     8      62.066  41.098  40.421  1.00 99.99     0.164 HD
BRANCH  48  50
ATOM     50  CA  LYS     8      62.534  41.174  42.474  1.00  0.00     0.159 C 
BRANCH  50  51
ATOM     51  C   LYS     8      61.615  40.399  43.440  1.00  0.00     0.251 C 
ATOM     52  O   LYS     8      61.166  39.307  43.100  1.00  0.00    -0.271 OA
ATOM     53  N   ILE     9      61.228  41.030  44.552  1.00  0.00    -0.338 N 
ATOM     54  H   ILE     9      61.547  41.963  44.762  1.00 99.99     0.164 HD
BRANCH  53  55
ATOM     55  CA  ILE     9      60.336  40.429  45.565  1.00  0.00     0.159 C 
BRANCH  55  56
ATOM     56  CB  ILE     9      60.810  40.775  46.997  1.00  0.00     0.029 C 
ATOM     57  CG2 ILE     9      60.891  39.520  47.883  1.00  0.00     0.002 C 
BRANCH  56  58
ATOM     58  CG1 ILE     9      62.184  41.467  46.939  1.00  0.00     0.002 C 
ATOM     59  CD  ILE     9      62.632  42.102  48.262  1.00  0.00     0.000 C 
ENDBRANCH  56  58
ENDBRANCH  55  56
BRANCH  55  60
ATOM     60  C   ILE     9      58.865  40.812  45.297  1.00  0.00     0.251 C 
ATOM     61  N   THR    10      57.941  39.889  45.571  1.00  0.00    -0.336 N 
ATOM     62  H   THR    10      58.187  38.960  45.880  1.00 99.99     0.164 HD
ATOM     63  O   ILE     9      58.581  41.975  45.020  1.00  0.00    -0.271 OA
BRANCH  61  64
ATOM     64  CA  THR    10      56.493  40.099  45.379  1.00  0.00     0.186 C 
BRANCH  64  65
ATOM     65  CB  THR    10      55.925  39.172  44.289  1.00  0.00     0.140 C 
ATOM     66  CG2 THR    10      56.735  37.876  44.149  1.00  0.00     0.034 C 
BRANCH  65  67
ATOM     67  OG1 THR    10      54.579  38.826  44.637  1.00  0.00    -0.382 OA
ATOM     68  HG1 THR    10      54.348  39.185  45.545  1.00 99.99     0.210 HD
ENDBRANCH  65  67
ENDBRANCH  64  65
BRANCH  64  69
ATOM     69  C   THR    10      55.728  39.956  46.709  1.00  0.00     0.253 C 
ATOM     70  O   THR    10      54.896  40.814  46.987  1.00  0.00    -0.270 OA
ATOM     71  N   LYS    11      56.143  39.034  47.584  1.00  0.00    -0.337 N 
ATOM     72  H   LYS    11      56.873  38.370  47.377  1.00 99.99     0.164 HD
BRANCH  71  73
ATOM     73  CA  LYS    11      55.539  38.895  48.923  1.00  0.00     0.159 C 
BRANCH  73  74
ATOM     74  CB  LYS    11      55.435  37.435  49.381  1.00  0.00     0.032 C 
BRANCH  74  75
ATOM     75  CG  LYS    11      56.253  36.503  48.484  1.00  0.00     0.004 C 
BRANCH  75  76
ATOM     76  CD  LYS    11      57.321  35.766  49.294  1.00  0.00     0.032 C 
BRANCH  76  77
ATOM     77  CE  LYS    11      58.726  36.171  48.838  1.00  0.00     0.206 C 
BRANCH  77  78
ATOM     78  NZ  LYS    11      58.708  36.713  47.474  1.00  0.00    -0.064 N 
ATOM     79  HZ3 LYS    11      57.966  36.286  46.955  1.00 99.99     0.275 HD
ATOM     80  HZ2 LYS    11      59.580  36.521  47.023  1.00 99.99     0.275 HD
ATOM     81  HZ1 LYS    11      58.560  37.703  47.510  1.00 99.99     0.275 HD
ENDBRANCH  77  78
ENDBRANCH  76  77
ENDBRANCH  75  76
ENDBRANCH  74  75
ENDBRANCH  73  74
BRANCH  73  82
ATOM     82  C   LYS    11      56.242  39.730  50.009  1.00  0.00     0.251 C 
ATOM     83  O   LYS    11      57.278  40.326  49.721  1.00  0.00    -0.271 OA
ATOM     84  N   LYS    12      55.796  39.623  51.262  1.00  0.00    -0.338 N 
ATOM     85  H   LYS    12      54.970  39.088  51.499  1.00 99.99     0.164 HD
BRANCH  84  86
ATOM     86  CA  LYS    12      56.432  40.313  52.397  1.00  0.00     0.159 C 
BRANCH  86  87
ATOM     87  C   LYS    12      56.523  39.397  53.633  1.00  0.00     0.251 C 
ATOM     88  O   LYS    12      55.679  39.493  54.521  1.00  0.00    -0.271 OA
ATOM     89  N   ASN    13      57.637  38.679  53.769  1.00  0.00    -0.337 N 
ATOM     90  H   ASN    13      58.336  38.659  53.038  1.00 99.99     0.164 HD
BRANCH  89  91
ATOM     91  CA  ASN    13      57.890  37.770  54.900  1.00  0.00     0.169 C 
BRANCH  91  92
ATOM     92  C   ASN    13      59.401  37.612  55.182  1.00  0.00     0.251 C 
ATOM     93  N   MET    14      59.797  36.402  55.578  1.00  0.00    -0.337 N 
ATOM     94  H   MET    14      59.123  35.673  55.755  1.00 99.99     0.164 HD
ATOM     95  O   ASN    13      60.189  38.482  54.820  1.00  0.00    -0.271 OA
BRANCH  93  96
ATOM     96  CA  MET    14      61.192  35.982  55.829  1.00  0.00     0.160 C 
BRANCH  96  97
ATOM     97  C   MET    14      62.171  37.125  56.183  1.00  0.00     0.251 C 
ATOM     98  O   MET    14      62.107  37.669  57.285  1.00  0.00    -0.271 OA
ATOM     99  N   ALA    15      63.096  37.444  55.275  1.00  0.00    -0.338 N 
ATOM    100  H   ALA    15      63.350  36.796  54.549  1.00 99.99     0.164 HD
BRANCH  99 101
ATOM    101  CA  ALA    15      63.984  38.618  55.381  1.00  0.00     0.159 C 
ATOM    102  CB  ALA    15      65.374  38.170  55.843  1.00  0.00     0.034 C 
BRANCH 101 103
ATOM    103  C   ALA    15      64.105  39.433  54.076  1.00  0.00     0.251 C 
ATOM    104  O   ALA    15      64.683  40.518  54.071  1.00  0.00    -0.271 OA
ATOM    105  N   HIS    16      63.635  38.855  52.970  1.00  0.00    -0.337 N 
ATOM    106  H   HIS    16      63.394  37.878  52.976  1.00 99.99     0.164 HD
BRANCH 105 107
ATOM    107  CA  HIS    16      63.587  39.475  51.633  1.00  0.00     0.165 C 
BRANCH 107 108
ATOM    108  C   HIS    16      64.897  39.326  50.827  1.00  0.00     0.251 C 
ATOM    109  O   HIS    16      65.936  38.986  51.391  1.00  0.00    -0.271 OA
ATOM    110  N   ILE    17      64.824  39.522  49.510  1.00  0.00    -0.338 N 
ATOM    111  H   ILE    17      63.931  39.640  49.067  1.00 99.99     0.164 HD
BRANCH 110 112
ATOM    112  CA  ILE    17      65.965  39.357  48.575  1.00  0.00     0.159 C 
BRANCH 112 113
ATOM    113  CB  ILE    17      65.745  38.057  47.755  1.00  0.00     0.029 C 
ATOM    114  CG2 ILE    17      66.465  36.826  48.343  1.00  0.00     0.002 C 
BRANCH 113 115
ATOM    115  CG1 ILE    17      64.237  37.774  47.625  1.00  0.00     0.002 C 
ATOM    116  CD  ILE    17      63.654  38.022  46.225  1.00  0.00     0.000 C 
ENDBRANCH 113 115
ENDBRANCH 112 113
BRANCH 112 117
ATOM    117  C   ILE    17      66.248  40.603  47.702  1.00  0.00     0.251 C 
ATOM    118  O   ILE    17      66.067  40.572  46.485  1.00  0.00    -0.271 OA
ATOM    119  N   ARG    18      66.778  41.665  48.305  1.00  0.00    -0.336 N 
ATOM    120  H   ARG    18      67.260  41.584  49.175  1.00 99.99     0.164 HD
BRANCH 119 121
ATOM    121  CA  ARG    18      66.903  42.984  47.647  1.00  0.00     0.168 C 
BRANCH 121 122
ATOM    122  CB  ARG    18      66.623  44.029  48.727  1.00  0.00     0.035 C 
BRANCH 122 123
ATOM    123  CG  ARG    18      65.304  44.781  48.532  1.00  0.00     0.027 C 
BRANCH 123 124
ATOM    124  CD  ARG    18      65.387  46.171  49.167  1.00  0.00     0.116 C 
BRANCH 124 125
ATOM    125  NE  ARG    18      64.631  46.193  50.425  1.00  0.00    -0.212 N 
ATOM    126  CZ  ARG    18      63.303  46.261  50.546  1.00  0.00     0.666 C 
ATOM    127  NH1 ARG    18      62.508  46.420  49.501  1.00  0.00    -0.235 N 
ATOM    128  NH2 ARG    18      62.744  45.982  51.711  1.00  0.00    -0.235 N 
ATOM    129 2HH1 ARG    18      62.925  46.519  48.594  1.00 99.99     0.174 HD
ATOM    130 1HH1 ARG    18      61.522  46.466  49.615  1.00 99.99     0.174 HD
ATOM    131 2HH2 ARG    18      63.326  45.750  52.491  1.00 99.99     0.174 HD
ATOM    132 1HH2 ARG    18      61.756  46.024  51.812  1.00 99.99     0.174 HD
ATOM    133  HE  ARG    18      65.187  46.257  51.253  1.00 99.99     0.178 HD
ENDBRANCH 124 125
ENDBRANCH 123 124
ENDBRANCH 122 123
ENDBRANCH 121 122
BRANCH 121 134
ATOM    134  C   ARG    18      68.296  43.211  47.029  1.00  0.00     0.206 C 
ATOM    135  O   ARG    18      68.405  44.081  46.134  1.00 99.99    -0.646 OA
ATOM    136  OXT ARG    18      69.238  42.591  47.561  1.00 99.99    -0.646 OA
ENDBRANCH 121 134
ENDBRANCH 119 121
ENDBRANCH 112 117
ENDBRANCH 110 112
ENDBRANCH 107 108
BRANCH 107 137
ATOM    137  CB  HIS    16      63.208  40.955  51.831  1.00  0.00     0.077 C 
BRANCH 137 138
ATOM    138  CG  HIS    16      61.718  41.198  52.110  1.00  0.00     0.057 A 
ATOM    139  CD2 HIS    16      60.700  40.647  51.456  1.00  0.00     0.113 A 
ATOM    140  NE2 HIS    16      59.582  40.892  52.133  1.00  0.00    -0.223 NA
ATOM    141  CE1 HIS    16      59.909  41.620  53.197  1.00  0.00     0.175 A 
ATOM    142  ND1 HIS    16      61.221  41.834  53.168  1.00  0.00    -0.338 N 
ATOM    143  HD1 HIS    16      61.719  42.466  53.763  1.00 99.99     0.167 HD
ENDBRANCH 137 138
ENDBRANCH 107 137
ENDBRANCH 105 107
ENDBRANCH 101 103
ENDBRANCH  99 101
ENDBRANCH  96  97
BRANCH  96 144
ATOM    144  CB  MET    14      61.608  35.151  54.603  1.00  0.00     0.043 C 
BRANCH 144 145
ATOM    145  CG  MET    14      61.596  35.796  53.210  1.00  0.00     0.060 C 
BRANCH 145 146
ATOM    146  SD  MET    14      61.913  34.695  51.782  1.00  0.00    -0.139 SA
ATOM    147  CE  MET    14      62.517  35.823  50.544  1.00  0.00     0.069 C 
ENDBRANCH 145 146
ENDBRANCH 144 145
ENDBRANCH  96 144
ENDBRANCH  93  96
ENDBRANCH  91  92
BRANCH  91 148
ATOM    148  CB  ASN    13      57.230  36.403  54.641  1.00  0.00     0.119 C 
BRANCH 148 149
ATOM    149  CG  ASN    13      57.033  36.032  53.162  1.00  0.00     0.230 C 
ATOM    150  ND2 ASN    13      57.990  35.304  52.623  1.00  0.00    -0.369 N 
ATOM    151 2HD2 ASN    13      58.788  35.039  53.154  1.00 99.99     0.159 HD
ATOM    152 1HD2 ASN    13      57.873  35.058  51.667  1.00 99.99     0.159 HD
ATOM    153  OD1 ASN    13      56.098  36.403  52.468  1.00  0.00    -0.273 OA
ENDBRANCH 148 149
ENDBRANCH  91 148
ENDBRANCH  89  91
ENDBRANCH  86  87
BRANCH  86 154
ATOM    154  CB  LYS    12      55.698  41.620  52.740  1.00  0.00     0.032 C 
BRANCH 154 155
ATOM    155  CG  LYS    12      56.357  42.813  52.039  1.00  0.00     0.004 C 
BRANCH 155 156
ATOM    156  CD  LYS    12      55.361  43.702  51.293  1.00  0.00     0.032 C 
BRANCH 156 157
ATOM    157  CE  LYS    12      54.962  43.009  49.988  1.00  0.00     0.206 C 
BRANCH 157 158
ATOM    158  NZ  LYS    12      56.039  43.055  48.989  1.00  0.00    -0.064 N 
ATOM    159  HZ3 LYS    12      55.887  43.825  48.369  1.00 99.99     0.275 HD
ATOM    160  HZ2 LYS    12      56.044  42.201  48.469  1.00 99.99     0.275 HD
ATOM    161  HZ1 LYS    12      56.917  43.170  49.456  1.00 99.99     0.275 HD
ENDBRANCH 157 158
ENDBRANCH 156 157
ENDBRANCH 155 156
ENDBRANCH 154 155
ENDBRANCH  86 154
ENDBRANCH  84  86
ENDBRANCH  73  82
ENDBRANCH  71  73
ENDBRANCH  64  69
ENDBRANCH  61  64
ENDBRANCH  55  60
ENDBRANCH  53  55
ENDBRANCH  50  51
BRANCH  50 162
ATOM    162  CB  LYS     8      63.199  42.369  43.176  1.00  0.00     0.032 C 
BRANCH 162 163
ATOM    163  CG  LYS     8      64.705  42.431  42.894  1.00  0.00     0.004 C 
BRANCH 163 164
ATOM    164  CD  LYS     8      65.229  41.185  42.178  1.00  0.00     0.032 C 
BRANCH 164 165
ATOM    165  CE  LYS     8      66.395  40.578  42.968  1.00  0.00     0.206 C 
BRANCH 165 166
ATOM    166  NZ  LYS     8      67.569  40.320  42.124  1.00  0.00    -0.064 N 
ATOM    167  HZ3 LYS     8      67.876  41.172  41.700  1.00 99.99     0.275 HD
ATOM    168  HZ1 LYS     8      68.306  39.948  42.689  1.00 99.99     0.275 HD
ATOM    169  HZ2 LYS     8      67.334  39.657  41.412  1.00 99.99     0.275 HD
ENDBRANCH 165 166
ENDBRANCH 164 165
ENDBRANCH 163 164
ENDBRANCH 162 163
ENDBRANCH  50 162
ENDBRANCH  48  50
ENDBRANCH  44  46
ENDBRANCH  42  44
ENDBRANCH  32  40
ENDBRANCH  29  32
ENDBRANCH  27  28
BRANCH  27 170
ATOM    170  CB  LEU     5      60.754  36.683  38.092  1.00  0.00     0.032 C 
BRANCH 170 171
ATOM    171  CG  LEU     5      61.162  35.306  37.553  1.00  0.00     0.002 C 
ATOM    172  CD2 LEU     5      60.119  34.234  37.891  1.00  0.00     0.000 C 
ATOM    173  CD1 LEU     5      62.514  34.907  38.149  1.00  0.00     0.000 C 
ENDBRANCH 170 171
ENDBRANCH  27 170
ENDBRANCH  24  27
ENDBRANCH  22  23
BRANCH  22 174
ATOM    174  CB  LYS     4      65.454  37.625  36.271  1.00  0.00     0.032 C 
BRANCH 174 175
ATOM    175  CG  LYS     4      65.967  38.077  37.645  1.00  0.00     0.004 C 
BRANCH 175 176
ATOM    176  CD  LYS     4      65.361  37.268  38.798  1.00  0.00     0.032 C 
BRANCH 176 177
ATOM    177  CE  LYS     4      65.067  38.173  40.000  1.00  0.00     0.206 C 
BRANCH 177 178
ATOM    178  NZ  LYS     4      65.419  37.543  41.285  1.00  0.00    -0.064 N 
ATOM    179  HZ1 LYS     4      66.416  37.482  41.361  1.00 99.99     0.275 HD
ATOM    180  HZ2 LYS     4      65.068  38.093  42.041  1.00 99.99     0.275 HD
ATOM    181  HZ3 LYS     4      65.033  36.622  41.330  1.00 99.99     0.275 HD
ENDBRANCH 177 178
ENDBRANCH 176 177
ENDBRANCH 175 176
ENDBRANCH 174 175
ENDBRANCH  22 174
ENDBRANCH  20  22
ENDBRANCH  14  18
ENDBRANCH  10  11
BRANCH  10 182
ATOM    182  CB  LEU     2      69.581  42.481  35.969  1.00  0.00     0.032 C 
BRANCH 182 183
ATOM    183  CG  LEU     2      69.858  42.325  34.464  1.00  0.00     0.002 C 
ATOM    184  CD2 LEU     2      70.547  43.582  33.932  1.00  0.00     0.000 C 
ATOM    185  CD1 LEU     2      68.579  42.041  33.668  1.00  0.00     0.000 C 
ENDBRANCH 182 183
ENDBRANCH  10 182
ENDBRANCH   7  10
ENDBRANCH   5   6
BRANCH   5 186
ATOM    186  CB  PHE     1      69.451  46.504  38.831  1.00  0.00     0.064 C 
BRANCH 186 187
ATOM    187  CG  PHE     1      68.305  47.518  38.752  1.00  0.00    -0.044 A 
ATOM    188  CD1 PHE     1      67.367  47.400  37.746  1.00  0.00     0.008 A 
ATOM    189  CE1 PHE     1      66.353  48.331  37.633  1.00  0.00     0.001 A 
ATOM    190  CZ  PHE     1      66.275  49.393  38.526  1.00  0.00     0.000 A 
ATOM    191  CE2 PHE     1      67.225  49.517  39.546  1.00  0.00     0.001 A 
ATOM    192  CD2 PHE     1      68.240  48.566  39.660  1.00  0.00     0.008 A 
ENDBRANCH 186 187
ENDBRANCH   5 186
ENDBRANCH   1   5
TORSDOF 80
ENDMDL
MODEL 9
REMARK VINA RESULT:      -3.1      3.157     11.326
REMARK WARNING: 32 MAX_TORS EXCEEDED!!!
REMARK  80 active torsions:
REMARK  status: ('A' for Active; 'I' for Inactive)
REMARK    1  A    between atoms: N_1  and  CA_2 
REMARK    2  A    between atoms: CA_2  and  C_3 
REMARK    3  A    between atoms: CA_2  and  CB_5 
REMARK       I    between atoms: C_3  and  N_15 
REMARK    4  A    between atoms: CB_5  and  CG_6 
REMARK    5  A    between atoms: N_15  and  CA_16 
REMARK    6  A    between atoms: CA_16  and  C_17 
REMARK    7  A    between atoms: CA_16  and  CB_19 
REMARK       I    between atoms: C_17  and  N_24 
REMARK    8  A    between atoms: CB_19  and  CG_20 
REMARK    9  A    between atoms: CA_25  and  C_26 
REMARK       I    between atoms: C_26  and  N_31 
REMARK   10  A    between atoms: N_31  and  CA_32 
REMARK   11  A    between atoms: CA_32  and  C_33 
REMARK   12  A    between atoms: CA_32  and  CB_35 
REMARK       I    between atoms: C_33  and  N_44 
REMARK   13  A    between atoms: CB_35  and  CG_36 
REMARK   14  A    between atoms: CG_36  and  CD_37 
REMARK   15  A    between atoms: CD_37  and  CE_38 
REMARK   16  A    between atoms: CE_38  and  NZ_39 
REMARK   17  A    between atoms: N_44  and  CA_45 
REMARK   18  A    between atoms: CA_45  and  C_46 
REMARK   19  A    between atoms: CA_45  and  CB_48 
REMARK       I    between atoms: C_46  and  N_53 
REMARK   20  A    between atoms: CB_48  and  CG_49 
REMARK   21  A    between atoms: N_53  and  CA_54 
REMARK   22  A    between atoms: CA_54  and  CB_57 
REMARK   23  A    between atoms: CA_54  and  C_55 
REMARK       I    between atoms: C_55  and  N_65 
REMARK   24  A    between atoms: CB_57  and  CG_58 
REMARK   25  A    between atoms: N_65  and  CA_66 
REMARK   26  A    between atoms: CA_66  and  C_67 
REMARK       I    between atoms: C_67  and  N_71 
REMARK   27  A    between atoms: N_71  and  CA_72 
REMARK   28  A    between atoms: CA_72  and  C_73 
REMARK   29  A    between atoms: CA_72  and  CB_75 
REMARK       I    between atoms: C_73  and  N_84 
REMARK   30  A    between atoms: CB_75  and  CG_76 
REMARK   31  A    between atoms: CG_76  and  CD_77 
REMARK   32  A    between atoms: CD_77  and  CE_78 
REMARK   33  A    between atoms: CE_78  and  NZ_79 
REMARK   34  A    between atoms: N_84  and  CA_85 
REMARK   35  A    between atoms: CA_85  and  CB_88 
REMARK   36  A    between atoms: CA_85  and  C_86 
REMARK       I    between atoms: C_86  and  N_93 
REMARK   37  A    between atoms: CB_88  and  CG1_89 
REMARK   38  A    between atoms: N_93  and  CA_94 
REMARK   39  A    between atoms: CA_94  and  CB_97 
REMARK   40  A    between atoms: CA_94  and  C_95 
REMARK       I    between atoms: C_95  and  N_102 
REMARK   41  A    between atoms: CB_97  and  OG1_98 
REMARK   42  A    between atoms: N_102  and  CA_103 
REMARK   43  A    between atoms: CA_103  and  CB_106 
REMARK   44  A    between atoms: CA_103  and  C_104 
REMARK       I    between atoms: C_104  and  N_115 
REMARK   45  A    between atoms: CB_106  and  CG_107 
REMARK   46  A    between atoms: CG_107  and  CD_108 
REMARK   47  A    between atoms: CD_108  and  CE_109 
REMARK   48  A    between atoms: CE_109  and  NZ_110 
REMARK   49  A    between atoms: N_115  and  CA_116 
REMARK   50  A    between atoms: CA_116  and  C_117 
REMARK   51  A    between atoms: CA_116  and  CB_119 
REMARK       I    between atoms: C_117  and  N_128 
REMARK   52  A    between atoms: CB_119  and  CG_120 
REMARK   53  A    between atoms: CG_120  and  CD_121 
REMARK   54  A    between atoms: CD_121  and  CE_122 
REMARK   55  A    between atoms: CE_122  and  NZ_123 
REMARK   56  A    between atoms: N_128  and  CA_129 
REMARK   57  A    between atoms: CA_129  and  C_130 
REMARK   58  A    between atoms: CA_129  and  CB_132 
REMARK       I    between atoms: C_130  and  N_139 
REMARK   59  A    between atoms: CB_132  and  CG_133 
REMARK       I    between atoms: CG_133  and  ND2_135 
REMARK   60  A    between atoms: N_139  and  CA_140 
REMARK   61  A    between atoms: CA_140  and  C_141 
REMARK   62  A    between atoms: CA_140  and  CB_143 
REMARK       I    between atoms: C_141  and  N_148 
REMARK   63  A    between atoms: CB_143  and  CG_144 
REMARK   64  A    between atoms: CG_144  and  SD_145 
REMARK   65  A    between atoms: N_148  and  CA_149 
REMARK   66  A    between atoms: CA_149  and  C_150 
REMARK       I    between atoms: C_150  and  N_154 
REMARK   67  A    between atoms: N_154  and  CA_155 
REMARK   68  A    between atoms: CA_155  and  C_156 
REMARK   69  A    between atoms: CA_155  and  CB_158 
REMARK       I    between atoms: C_156  and  N_166 
REMARK   70  A    between atoms: CB_158  and  CG_159 
REMARK   71  A    between atoms: N_166  and  CA_167 
REMARK   72  A    between atoms: CA_167  and  CB_170 
REMARK   73  A    between atoms: CA_167  and  C_168 
REMARK       I    between atoms: C_168  and  N_175 
REMARK   74  A    between atoms: CB_170  and  CG1_171 
REMARK   75  A    between atoms: N_175  and  CA_176 
REMARK   76  A    between atoms: CA_176  and  CB_179 
REMARK   77  A    between atoms: CA_176  and  C_177 
REMARK   78  A    between atoms: CB_179  and  CG_180 
REMARK   79  A    between atoms: CG_180  and  CD_181 
REMARK   80  A    between atoms: CD_181  and  NE_182 
REMARK       I    between atoms: NE_182  and  CZ_183 
REMARK       I    between atoms: CZ_183  and  NH1_184 
ROOT
ATOM      1  N   PHE     1      58.925  42.524  52.452  1.00  0.00    -0.057 N 
ATOM      2  H1  PHE     1      59.409  42.329  53.299  1.00 99.99     0.276 HD
ATOM      3  H2  PHE     1      58.852  43.515  52.341  1.00 99.99     0.276 HD
ATOM      4  H3  PHE     1      57.972  42.227  52.517  1.00 99.99     0.276 HD
ENDROOT
BRANCH   1   5
ATOM      5  CA  PHE     1      59.615  41.899  51.279  1.00  0.00     0.259 C 
BRANCH   5   6
ATOM      6  C   PHE     1      59.242  40.458  50.819  1.00  0.00     0.259 C 
ATOM      7  N   LEU     2      57.984  40.038  50.987  1.00  0.00    -0.338 N 
ATOM      8  H   LEU     2      57.236  40.654  51.229  1.00 99.99     0.164 HD
ATOM      9  O   PHE     1      60.022  39.821  50.109  1.00  0.00    -0.271 OA
BRANCH   7  10
ATOM     10  CA  LEU     2      57.591  38.630  50.742  1.00  0.00     0.160 C 
BRANCH  10  11
ATOM     11  C   LEU     2      56.683  38.388  49.506  1.00  0.00     0.254 C 
ATOM     12  N   PRO     3      55.644  39.208  49.230  1.00  0.00    -0.312 N 
ATOM     13  CD  PRO     3      54.989  40.161  50.154  1.00  0.00     0.105 C 
ATOM     14  CA  PRO     3      54.833  39.083  48.004  1.00  0.00     0.163 C 
ATOM     15  CG  PRO     3      53.581  40.344  49.586  1.00  0.00     0.027 C 
ATOM     16  CB  PRO     3      53.796  40.204  48.082  1.00  0.00     0.034 C 
ATOM     17  O   LEU     2      57.065  37.542  48.701  1.00  0.00    -0.270 OA
BRANCH  14  18
ATOM     18  C   PRO     3      55.662  39.188  46.713  1.00  0.00     0.251 C 
ATOM     19  O   PRO     3      55.964  40.304  46.301  1.00  0.00    -0.271 OA
ATOM     20  N   LYS     4      55.847  38.070  46.000  1.00  0.00    -0.338 N 
ATOM     21  H   LYS     4      55.537  37.178  46.329  1.00 99.99     0.164 HD
BRANCH  20  22
ATOM     22  CA  LYS     4      56.570  38.029  44.712  1.00  0.00     0.159 C 
BRANCH  22  23
ATOM     23  C   LYS     4      57.974  38.661  44.803  1.00  0.00     0.251 C 
ATOM     24  N   LEU     5      58.173  39.796  44.127  1.00  0.00    -0.338 N 
ATOM     25  H   LEU     5      57.487  40.159  43.488  1.00 99.99     0.164 HD
ATOM     26  O   LYS     4      58.806  38.188  45.578  1.00  0.00    -0.271 OA
BRANCH  24  27
ATOM     27  CA  LEU     5      59.426  40.566  44.214  1.00  0.00     0.159 C 
BRANCH  27  28
ATOM     28  C   LEU     5      60.675  39.733  43.906  1.00  0.00     0.251 C 
ATOM     29  N   PHE     6      61.566  39.600  44.894  1.00  0.00    -0.337 N 
ATOM     30  H   PHE     6      61.472  40.097  45.763  1.00 99.99     0.164 HD
ATOM     31  O   LEU     5      60.714  39.070  42.870  1.00  0.00    -0.271 OA
BRANCH  29  32
ATOM     32  CA  PHE     6      62.773  38.761  44.782  1.00  0.00     0.164 C 
BRANCH  32  33
ATOM     33  CB  PHE     6      62.400  37.283  44.951  1.00  0.00     0.056 C 
BRANCH  33  34
ATOM     34  CG  PHE     6      63.150  36.624  46.125  1.00  0.00    -0.044 A 
ATOM     35  CD1 PHE     6      62.555  36.545  47.369  1.00  0.00     0.008 A 
ATOM     36  CE1 PHE     6      63.225  35.952  48.429  1.00  0.00     0.001 A 
ATOM     37  CZ  PHE     6      64.506  35.427  48.238  1.00  0.00     0.000 A 
ATOM     38  CE2 PHE     6      65.100  35.503  46.976  1.00  0.00     0.001 A 
ATOM     39  CD2 PHE     6      64.417  36.107  45.924  1.00  0.00     0.008 A 
ENDBRANCH  33  34
ENDBRANCH  32  33
BRANCH  32  40
ATOM     40  C   PHE     6      63.512  39.019  43.457  1.00  0.00     0.251 C 
ATOM     41  O   PHE     6      63.723  38.073  42.704  1.00  0.00    -0.271 OA
ATOM     42  N   ALA     7      64.138  40.192  43.337  1.00  0.00    -0.338 N 
ATOM     43  H   ALA     7      64.048  40.911  44.039  1.00 99.99     0.164 HD
BRANCH  42  44
ATOM     44  CA  ALA     7      64.961  40.567  42.175  1.00  0.00     0.159 C 
ATOM     45  CB  ALA     7      64.568  41.961  41.672  1.00  0.00     0.034 C 
BRANCH  44  46
ATOM     46  C   ALA     7      66.474  40.514  42.455  1.00  0.00     0.251 C 
ATOM     47  O   ALA     7      66.914  39.593  43.142  1.00  0.00    -0.271 OA
ATOM     48  N   LYS     8      67.217  41.563  42.087  1.00  0.00    -0.338 N 
ATOM     49  H   LYS     8      66.847  42.309  41.520  1.00 99.99     0.164 HD
BRANCH  48  50
ATOM     50  CA  LYS     8      68.656  41.670  42.391  1.00  0.00     0.159 C 
BRANCH  50  51
ATOM     51  C   LYS     8      68.915  42.294  43.778  1.00  0.00     0.251 C 
ATOM     52  O   LYS     8      70.053  42.649  44.076  1.00  0.00    -0.271 OA
ATOM     53  N   ILE     9      67.905  42.280  44.651  1.00  0.00    -0.338 N 
ATOM     54  H   ILE     9      67.004  41.901  44.403  1.00 99.99     0.164 HD
BRANCH  53  55
ATOM     55  CA  ILE     9      68.001  42.822  46.022  1.00  0.00     0.159 C 
BRANCH  55  56
ATOM     56  CB  ILE     9      66.636  43.371  46.499  1.00  0.00     0.029 C 
ATOM     57  CG2 ILE     9      65.518  43.059  45.489  1.00  0.00     0.002 C 
BRANCH  56  58
ATOM     58  CG1 ILE     9      66.284  42.773  47.873  1.00  0.00     0.002 C 
ATOM     59  CD  ILE     9      65.071  41.833  47.866  1.00  0.00     0.000 C 
ENDBRANCH  56  58
ENDBRANCH  55  56
BRANCH  55  60
ATOM     60  C   ILE     9      68.613  41.780  46.983  1.00  0.00     0.251 C 
ATOM     61  N   THR    10      68.452  40.495  46.662  1.00  0.00    -0.336 N 
ATOM     62  H   THR    10      67.905  40.205  45.865  1.00 99.99     0.164 HD
ATOM     63  O   ILE     9      69.358  42.152  47.886  1.00  0.00    -0.271 OA
BRANCH  61  64
ATOM     64  CA  THR    10      68.982  39.379  47.469  1.00  0.00     0.186 C 
BRANCH  64  65
ATOM     65  CB  THR    10      70.519  39.409  47.539  1.00  0.00     0.140 C 
ATOM     66  CG2 THR    10      71.130  38.002  47.518  1.00  0.00     0.034 C 
BRANCH  65  67
ATOM     67  OG1 THR    10      71.016  40.133  46.406  1.00  0.00    -0.382 OA
ATOM     68  HG1 THR    10      70.723  41.091  46.446  1.00 99.99     0.210 HD
ENDBRANCH  65  67
ENDBRANCH  64  65
BRANCH  64  69
ATOM     69  C   THR    10      68.346  39.352  48.872  1.00  0.00     0.253 C 
ATOM     70  O   THR    10      69.091  39.448  49.842  1.00  0.00    -0.270 OA
ATOM     71  N   LYS    11      67.054  39.022  48.977  1.00  0.00    -0.337 N 
ATOM     72  H   LYS    11      66.457  38.880  48.177  1.00 99.99     0.164 HD
BRANCH  71  73
ATOM     73  CA  LYS    11      66.387  38.870  50.285  1.00  0.00     0.159 C 
BRANCH  73  74
ATOM     74  CB  LYS    11      64.858  38.866  50.176  1.00  0.00     0.032 C 
BRANCH  74  75
ATOM     75  CG  LYS    11      64.208  39.638  51.326  1.00  0.00     0.004 C 
BRANCH  75  76
ATOM     76  CD  LYS    11      63.147  38.785  52.026  1.00  0.00     0.032 C 
BRANCH  76  77
ATOM     77  CE  LYS    11      63.801  37.767  52.965  1.00  0.00     0.206 C 
BRANCH  77  78
ATOM     78  NZ  LYS    11      64.603  38.433  53.998  1.00  0.00    -0.064 N 
ATOM     79  HZ3 LYS    11      65.525  38.601  53.648  1.00 99.99     0.275 HD
ATOM     80  HZ2 LYS    11      64.659  37.850  54.810  1.00 99.99     0.275 HD
ATOM     81  HZ1 LYS    11      64.177  39.305  54.241  1.00 99.99     0.275 HD
ENDBRANCH  77  78
ENDBRANCH  76  77
ENDBRANCH  75  76
ENDBRANCH  74  75
ENDBRANCH  73  74
BRANCH  73  82
ATOM     82  C   LYS    11      66.853  37.634  51.076  1.00  0.00     0.251 C 
ATOM     83  O   LYS    11      66.324  36.548  50.846  1.00  0.00    -0.271 OA
ATOM     84  N   LYS    12      67.682  37.830  52.104  1.00  0.00    -0.338 N 
ATOM     85  H   LYS    12      68.073  38.738  52.317  1.00 99.99     0.164 HD
BRANCH  84  86
ATOM     86  CA  LYS    12      68.138  36.737  52.979  1.00  0.00     0.159 C 
BRANCH  86  87
ATOM     87  C   LYS    12      67.758  37.000  54.450  1.00  0.00     0.251 C 
ATOM     88  O   LYS    12      66.814  36.392  54.951  1.00  0.00    -0.271 OA
ATOM     89  N   ASN    13      68.354  38.031  55.049  1.00  0.00    -0.337 N 
ATOM     90  H   ASN    13      69.096  38.542  54.591  1.00 99.99     0.164 HD
BRANCH  89  91
ATOM     91  CA  ASN    13      68.090  38.428  56.443  1.00  0.00     0.169 C 
BRANCH  91  92
ATOM     92  C   ASN    13      67.139  39.643  56.523  1.00  0.00     0.251 C 
ATOM     93  N   MET    14      67.189  40.351  57.652  1.00  0.00    -0.337 N 
ATOM     94  H   MET    14      67.760  40.044  58.425  1.00 99.99     0.164 HD
ATOM     95  O   ASN    13      66.572  40.049  55.511  1.00  0.00    -0.271 OA
BRANCH  93  96
ATOM     96  CA  MET    14      66.441  41.594  57.934  1.00  0.00     0.160 C 
BRANCH  96  97
ATOM     97  C   MET    14      64.900  41.460  57.895  1.00  0.00     0.251 C 
ATOM     98  O   MET    14      64.260  41.431  58.945  1.00  0.00    -0.271 OA
ATOM     99  N   ALA    15      64.318  41.431  56.694  1.00  0.00    -0.338 N 
ATOM    100  H   ALA    15      64.794  41.784  55.882  1.00 99.99     0.164 HD
BRANCH  99 101
ATOM    101  CA  ALA    15      62.889  41.131  56.480  1.00  0.00     0.159 C 
ATOM    102  CB  ALA    15      62.557  41.258  54.989  1.00  0.00     0.034 C 
BRANCH 101 103
ATOM    103  C   ALA    15      62.456  39.743  56.994  1.00  0.00     0.251 C 
ATOM    104  O   ALA    15      62.767  38.725  56.378  1.00  0.00    -0.271 OA
ATOM    105  N   HIS    16      61.818  39.716  58.165  1.00  0.00    -0.337 N 
ATOM    106  H   HIS    16      61.799  40.538  58.747  1.00 99.99     0.164 HD
BRANCH 105 107
ATOM    107  CA  HIS    16      61.257  38.513  58.810  1.00  0.00     0.165 C 
BRANCH 107 108
ATOM    108  C   HIS    16      59.868  38.739  59.449  1.00  0.00     0.251 C 
ATOM    109  O   HIS    16      59.318  37.832  60.073  1.00  0.00    -0.271 OA
ATOM    110  N   ILE    17      59.343  39.960  59.341  1.00  0.00    -0.338 N 
ATOM    111  H   ILE    17      59.890  40.713  58.965  1.00 99.99     0.164 HD
BRANCH 110 112
ATOM    112  CA  ILE    17      58.053  40.373  59.947  1.00  0.00     0.159 C 
BRANCH 112 113
ATOM    113  CB  ILE    17      58.140  41.880  60.312  1.00  0.00     0.029 C 
ATOM    114  CG2 ILE    17      59.566  42.351  60.661  1.00  0.00     0.002 C 
BRANCH 113 115
ATOM    115  CG1 ILE    17      57.574  42.726  59.156  1.00  0.00     0.002 C 
ATOM    116  CD  ILE    17      57.175  44.159  59.543  1.00  0.00     0.000 C 
ENDBRANCH 113 115
ENDBRANCH 112 113
BRANCH 112 117
ATOM    117  C   ILE    17      56.813  40.009  59.098  1.00  0.00     0.251 C 
ATOM    118  O   ILE    17      55.723  40.536  59.319  1.00  0.00    -0.271 OA
ATOM    119  N   ARG    18      56.953  39.044  58.192  1.00  0.00    -0.336 N 
ATOM    120  H   ARG    18      57.691  38.374  58.252  1.00 99.99     0.164 HD
BRANCH 119 121
ATOM    121  CA  ARG    18      55.923  38.741  57.173  1.00  0.00     0.168 C 
BRANCH 121 122
ATOM    122  CB  ARG    18      56.364  39.453  55.894  1.00  0.00     0.035 C 
BRANCH 122 123
ATOM    123  CG  ARG    18      55.324  40.427  55.338  1.00  0.00     0.027 C 
BRANCH 123 124
ATOM    124  CD  ARG    18      55.227  40.290  53.818  1.00  0.00     0.116 C 
BRANCH 124 125
ATOM    125  NE  ARG    18      53.833  40.050  53.425  1.00  0.00    -0.212 N 
ATOM    126  CZ  ARG    18      53.222  38.864  53.374  1.00  0.00     0.666 C 
ATOM    127  NH1 ARG    18      53.866  37.729  53.587  1.00  0.00    -0.235 N 
ATOM    128  NH2 ARG    18      51.903  38.818  53.288  1.00  0.00    -0.235 N 
ATOM    129 2HH1 ARG    18      54.853  37.767  53.767  1.00 99.99     0.174 HD
ATOM    130 1HH1 ARG    18      53.390  36.858  53.546  1.00 99.99     0.174 HD
ATOM    131 2HH2 ARG    18      51.386  39.673  53.235  1.00 99.99     0.174 HD
ATOM    132 1HH2 ARG    18      51.436  37.942  53.254  1.00 99.99     0.174 HD
ATOM    133  HE  ARG    18      53.345  40.850  53.078  1.00 99.99     0.178 HD
ENDBRANCH 124 125
ENDBRANCH 123 124
ENDBRANCH 122 123
ENDBRANCH 121 122
BRANCH 121 134
ATOM    134  C   ARG    18      55.764  37.230  56.920  1.00  0.00     0.206 C 
ATOM    135  O   ARG    18      55.470  36.499  57.894  1.00 99.99    -0.646 OA
ATOM    136  OXT ARG    18      55.819  36.867  55.728  1.00 99.99    -0.646 OA
ENDBRANCH 121 134
ENDBRANCH 119 121
ENDBRANCH 112 117
ENDBRANCH 110 112
ENDBRANCH 107 108
BRANCH 107 137
ATOM    137  CB  HIS    16      62.287  38.031  59.847  1.00  0.00     0.077 C 
BRANCH 137 138
ATOM    138  CG  HIS    16      63.240  36.940  59.338  1.00  0.00     0.057 A 
ATOM    139  CD2 HIS    16      62.898  35.881  58.610  1.00  0.00     0.113 A 
ATOM    140  NE2 HIS    16      64.008  35.310  58.151  1.00  0.00    -0.223 NA
ATOM    141  CE1 HIS    16      65.040  36.005  58.619  1.00  0.00     0.175 A 
ATOM    142  ND1 HIS    16      64.570  36.993  59.374  1.00  0.00    -0.338 N 
ATOM    143  HD1 HIS    16      65.120  37.585  59.965  1.00 99.99     0.167 HD
ENDBRANCH 137 138
ENDBRANCH 107 137
ENDBRANCH 105 107
ENDBRANCH 101 103
ENDBRANCH  99 101
ENDBRANCH  96  97
BRANCH  96 144
ATOM    144  CB  MET    14      67.007  42.652  56.974  1.00  0.00     0.043 C 
BRANCH 144 145
ATOM    145  CG  MET    14      67.973  43.720  57.506  1.00  0.00     0.060 C 
BRANCH 145 146
ATOM    146  SD  MET    14      69.353  44.215  56.408  1.00  0.00    -0.139 SA
ATOM    147  CE  MET    14      68.975  45.916  56.046  1.00  0.00     0.069 C 
ENDBRANCH 145 146
ENDBRANCH 144 145
ENDBRANCH  96 144
ENDBRANCH  93  96
ENDBRANCH  91  92
BRANCH  91 148
ATOM    148  CB  ASN    13      69.415  38.716  57.174  1.00  0.00     0.119 C 
BRANCH 148 149
ATOM    149  CG  ASN    13      70.490  39.430  56.339  1.00  0.00     0.230 C 
ATOM    150  ND2 ASN    13      70.638  40.717  56.578  1.00  0.00    -0.369 N 
ATOM    151 2HD2 ASN    13      70.066  41.179  57.247  1.00 99.99     0.159 HD
ATOM    152 1HD2 ASN    13      71.331  41.188  56.044  1.00 99.99     0.159 HD
ATOM    153  OD1 ASN    13      71.158  38.902  55.462  1.00  0.00    -0.273 OA
ENDBRANCH 148 149
ENDBRANCH  91 148
ENDBRANCH  89  91
ENDBRANCH  86  87
BRANCH  86 154
ATOM    154  CB  LYS    12      69.651  36.504  52.841  1.00  0.00     0.032 C 
BRANCH 154 155
ATOM    155  CG  LYS    12      69.934  35.242  52.018  1.00  0.00     0.004 C 
BRANCH 155 156
ATOM    156  CD  LYS    12      69.975  35.499  50.512  1.00  0.00     0.032 C 
BRANCH 156 157
ATOM    157  CE  LYS    12      70.707  34.339  49.834  1.00  0.00     0.206 C 
BRANCH 157 158
ATOM    158  NZ  LYS    12      70.262  34.144  48.447  1.00  0.00    -0.064 N 
ATOM    159  HZ3 LYS    12      70.709  34.816  47.855  1.00 99.99     0.275 HD
ATOM    160  HZ2 LYS    12      69.270  34.261  48.398  1.00 99.99     0.275 HD
ATOM    161  HZ1 LYS    12      70.506  33.221  48.149  1.00 99.99     0.275 HD
ENDBRANCH 157 158
ENDBRANCH 156 157
ENDBRANCH 155 156
ENDBRANCH 154 155
ENDBRANCH  86 154
ENDBRANCH  84  86
ENDBRANCH  73  82
ENDBRANCH  71  73
ENDBRANCH  64  69
ENDBRANCH  61  64
ENDBRANCH  55  60
ENDBRANCH  53  55
ENDBRANCH  50  51
BRANCH  50 162
ATOM    162  CB  LYS     8      69.395  42.442  41.286  1.00  0.00     0.032 C 
BRANCH 162 163
ATOM    163  CG  LYS     8      68.560  42.537  40.003  1.00  0.00     0.004 C 
BRANCH 163 164
ATOM    164  CD  LYS     8      69.176  43.471  38.959  1.00  0.00     0.032 C 
BRANCH 164 165
ATOM    165  CE  LYS     8      70.167  44.428  39.632  1.00  0.00     0.206 C 
BRANCH 165 166
ATOM    166  NZ  LYS     8      69.655  45.802  39.710  1.00  0.00    -0.064 N 
ATOM    167  HZ3 LYS     8      68.732  45.798  40.097  1.00 99.99     0.275 HD
ATOM    168  HZ1 LYS     8      70.255  46.346  40.298  1.00 99.99     0.275 HD
ATOM    169  HZ2 LYS     8      69.634  46.208  38.796  1.00 99.99     0.275 HD
ENDBRANCH 165 166
ENDBRANCH 164 165
ENDBRANCH 163 164
ENDBRANCH 162 163
ENDBRANCH  50 162
ENDBRANCH  48  50
ENDBRANCH  44  46
ENDBRANCH  42  44
ENDBRANCH  32  40
ENDBRANCH  29  32
ENDBRANCH  27  28
BRANCH  27 170
ATOM    170  CB  LEU     5      59.558  41.281  45.567  1.00  0.00     0.032 C 
BRANCH 170 171
ATOM    171  CG  LEU     5      59.698  42.801  45.421  1.00  0.00     0.002 C 
ATOM    172  CD2 LEU     5      58.648  43.376  44.462  1.00  0.00     0.000 C 
ATOM    173  CD1 LEU     5      61.098  43.136  44.904  1.00  0.00     0.000 C 
ENDBRANCH 170 171
ENDBRANCH  27 170
ENDBRANCH  24  27
ENDBRANCH  22  23
BRANCH  22 174
ATOM    174  CB  LYS     4      55.727  38.696  43.611  1.00  0.00     0.032 C 
BRANCH 174 175
ATOM    175  CG  LYS     4      55.587  37.825  42.354  1.00  0.00     0.004 C 
BRANCH 175 176
ATOM    176  CD  LYS     4      54.125  37.589  41.957  1.00  0.00     0.032 C 
BRANCH 176 177
ATOM    177  CE  LYS     4      53.905  37.918  40.476  1.00  0.00     0.206 C 
BRANCH 177 178
ATOM    178  NZ  LYS     4      54.716  39.062  40.023  1.00  0.00    -0.064 N 
ATOM    179  HZ1 LYS     4      54.919  38.957  39.047  1.00 99.99     0.275 HD
ATOM    180  HZ2 LYS     4      54.211  39.913  40.160  1.00 99.99     0.275 HD
ATOM    181  HZ3 LYS     4      55.576  39.094  40.531  1.00 99.99     0.275 HD
ENDBRANCH 177 178
ENDBRANCH 176 177
ENDBRANCH 175 176
ENDBRANCH 174 175
ENDBRANCH  22 174
ENDBRANCH  20  22
ENDBRANCH  14  18
ENDBRANCH  10  11
BRANCH  10 182
ATOM    182  CB  LEU     2      57.065  37.975  52.031  1.00  0.00     0.032 C 
BRANCH 182 183
ATOM    183  CG  LEU     2      57.981  36.895  52.629  1.00  0.00     0.002 C 
ATOM    184  CD2 LEU     2      58.861  37.509  53.720  1.00  0.00     0.000 C 
ATOM    185  CD1 LEU     2      58.851  36.220  51.562  1.00  0.00     0.000 C 
ENDBRANCH 182 183
ENDBRANCH  10 182
ENDBRANCH   7  10
ENDBRANCH   5   6
BRANCH   5 186
ATOM    186  CB  PHE     1      61.133  41.927  51.470  1.00  0.00     0.064 C 
BRANCH 186 187
ATOM    187  CG  PHE     1      61.847  42.898  50.524  1.00  0.00    -0.044 A 
ATOM    188  CD1 PHE     1      62.896  43.658  51.001  1.00  0.00     0.008 A 
ATOM    189  CE1 PHE     1      63.521  44.570  50.174  1.00  0.00     0.001 A 
ATOM    190  CZ  PHE     1      63.094  44.734  48.862  1.00  0.00     0.000 A 
ATOM    191  CE2 PHE     1      62.029  43.967  48.376  1.00  0.00     0.001 A 
ATOM    192  CD2 PHE     1      61.410  43.039  49.214  1.00  0.00     0.008 A 
ENDBRANCH 186 187
ENDBRANCH   5 186
ENDBRANCH   1   5
TORSDOF 80
ENDMDL
