MODEL 1
REMARK VINA RESULT:      -5.3      0.000      0.000
REMARK  14 active torsions:
REMARK  status: ('A' for Active; 'I' for Inactive)
REMARK    1  A    between atoms: CA_2  and  C_7 
REMARK    2  A    between atoms: CA_2  and  CB_3 
REMARK    3  A    between atoms: CB_3  and  CG_4 
REMARK       I    between atoms: C_7  and  N_9 
REMARK    4  A    between atoms: CA_10  and  C_14 
REMARK       I    between atoms: C_14  and  N_16 
REMARK    5  A    between atoms: N_16  and  CA_17 
REMARK    6  A    between atoms: CA_17  and  C_22 
REMARK    7  A    between atoms: CA_17  and  CB_18 
REMARK    8  A    between atoms: CB_18  and  CG_19 
REMARK    9  A    between atoms: CG_19  and  SD_20 
REMARK       I    between atoms: C_22  and  N_24 
REMARK   10  A    between atoms: N_24  and  CA_25 
REMARK   11  A    between atoms: CA_25  and  CB_26 
REMARK   12  A    between atoms: CA_25  and  C_29 
REMARK       I    between atoms: C_29  and  N_31 
REMARK   13  A    between atoms: N_31  and  CA_32 
REMARK   14  A    between atoms: CA_32  and  C_33 
ROOT
ATOM      1  N   LEU     1      65.992  42.792  47.043  1.00  0.00     0.626 N 
ATOM      2  CA  LEU     1      65.238  43.440  48.133  1.00  0.00     0.379 C 
ENDROOT
BRANCH   2   3
ATOM      3  C   LEU     1      63.732  43.171  47.901  1.00  0.00     0.271 C 
ATOM      4  O   LEU     1      63.299  43.524  46.802  1.00  0.00    -0.270 OA
ATOM      5  N   PRO     2      62.963  42.600  48.838  1.00  0.00    -0.312 N 
ATOM      6  CD  PRO     2      63.356  42.303  50.232  1.00  0.00     0.105 C 
ATOM      7  CA  PRO     2      61.546  42.212  48.622  1.00  0.00     0.165 C 
ATOM      8  CG  PRO     2      62.029  42.205  50.978  1.00  0.00     0.027 C 
ATOM      9  CB  PRO     2      61.095  41.574  49.943  1.00  0.00     0.034 C 
BRANCH   7  10
ATOM     10  C   PRO     2      60.549  43.295  48.146  1.00  0.00     0.272 C 
ATOM     11  O   PRO     2      60.715  44.457  48.494  1.00  0.00    -0.269 OA
ATOM     12  N   MET     3      59.741  42.963  47.138  1.00  0.00    -0.229 NA
BRANCH  12  13
ATOM     13  CA  MET     3      58.620  43.808  46.690  1.00  0.00     0.187 C 
BRANCH  13  14
ATOM     14  C   MET     3      57.445  43.946  47.691  1.00  0.00     0.274 C 
ATOM     15  N   THR     4      56.979  42.830  48.253  1.00  0.00    -0.226 NA
ATOM     16  O   MET     3      56.915  45.037  47.870  1.00  0.00    -0.268 OA
BRANCH  15  17
ATOM     17  CA  THR     4      55.784  42.809  49.147  1.00  0.00     0.216 C 
BRANCH  17  18
ATOM     18  CB  THR     4      55.009  41.471  49.099  1.00  0.00     0.184 C 
ATOM     19  OG1 THR     4      55.036  40.919  47.764  1.00  0.00    -0.221 OA
ATOM     20  CG2 THR     4      53.583  41.545  49.661  1.00  0.00     0.038 C 
ENDBRANCH  17  18
BRANCH  17  21
ATOM     21  C   THR     4      56.063  43.098  50.638  1.00  0.00     0.277 C 
ATOM     22  O   THR     4      55.378  43.935  51.236  1.00  0.00    -0.268 OA
ATOM     23  N   GLY     5      56.800  42.209  51.284  1.00  0.00    -0.225 NA
BRANCH  23  24
ATOM     24  CA  GLY     5      57.071  42.190  52.730  1.00  0.00     0.226 C 
BRANCH  24  25
ATOM     25  C   GLY     5      58.594  42.053  52.849  1.00  0.00     0.211 C 
ATOM     26  O1  GLY     5      59.062  40.903  52.631  1.00  0.00    -0.646 OA
ATOM     27  O2  GLY     5      59.240  43.095  53.046  1.00  0.00    -0.646 OA
ENDBRANCH  24  25
ENDBRANCH  23  24
ENDBRANCH  17  21
ENDBRANCH  15  17
ENDBRANCH  13  14
BRANCH  13  28
ATOM     28  CB  MET     3      58.122  43.238  45.349  1.00  0.00     0.046 C 
BRANCH  28  29
ATOM     29  CG  MET     3      59.178  42.460  44.549  1.00  0.00     0.060 C 
BRANCH  29  30
ATOM     30  SD  MET     3      58.798  40.676  44.295  1.00  0.00    -0.139 SA
ATOM     31  CE  MET     3      57.052  40.717  44.657  1.00  0.00     0.069 C 
ENDBRANCH  29  30
ENDBRANCH  28  29
ENDBRANCH  13  28
ENDBRANCH  12  13
ENDBRANCH   7  10
ENDBRANCH   2   3
BRANCH   2  32
ATOM     32  CB  LEU     1      65.557  44.942  48.102  1.00  0.00     0.049 C 
BRANCH  32  33
ATOM     33  CG  LEU     1      65.232  45.668  49.415  1.00  0.00     0.003 C 
ATOM     34  CD1 LEU     1      66.419  46.538  49.821  1.00  0.00     0.000 C 
ATOM     35  CD2 LEU     1      63.983  46.545  49.264  1.00  0.00     0.000 C 
ENDBRANCH  32  33
ENDBRANCH   2  32
TORSDOF 14
ENDMDL
MODEL 2
REMARK VINA RESULT:      -5.1      1.579      2.092
REMARK  14 active torsions:
REMARK  status: ('A' for Active; 'I' for Inactive)
REMARK    1  A    between atoms: CA_2  and  C_7 
REMARK    2  A    between atoms: CA_2  and  CB_3 
REMARK    3  A    between atoms: CB_3  and  CG_4 
REMARK       I    between atoms: C_7  and  N_9 
REMARK    4  A    between atoms: CA_10  and  C_14 
REMARK       I    between atoms: C_14  and  N_16 
REMARK    5  A    between atoms: N_16  and  CA_17 
REMARK    6  A    between atoms: CA_17  and  C_22 
REMARK    7  A    between atoms: CA_17  and  CB_18 
REMARK    8  A    between atoms: CB_18  and  CG_19 
REMARK    9  A    between atoms: CG_19  and  SD_20 
REMARK       I    between atoms: C_22  and  N_24 
REMARK   10  A    between atoms: N_24  and  CA_25 
REMARK   11  A    between atoms: CA_25  and  CB_26 
REMARK   12  A    between atoms: CA_25  and  C_29 
REMARK       I    between atoms: C_29  and  N_31 
REMARK   13  A    between atoms: N_31  and  CA_32 
REMARK   14  A    between atoms: CA_32  and  C_33 
ROOT
ATOM      1  N   LEU     1      65.965  44.303  46.521  1.00  0.00     0.626 N 
ATOM      2  CA  LEU     1      65.494  43.358  47.552  1.00  0.00     0.379 C 
ENDROOT
BRANCH   2   3
ATOM      3  C   LEU     1      63.996  43.073  47.292  1.00  0.00     0.271 C 
ATOM      4  O   LEU     1      63.508  43.663  46.325  1.00  0.00    -0.270 OA
ATOM      5  N   PRO     2      63.288  42.247  48.075  1.00  0.00    -0.312 N 
ATOM      6  CD  PRO     2      63.743  41.636  49.342  1.00  0.00     0.105 C 
ATOM      7  CA  PRO     2      61.884  41.848  47.800  1.00  0.00     0.165 C 
ATOM      8  CG  PRO     2      62.448  41.285  50.069  1.00  0.00     0.027 C 
ATOM      9  CB  PRO     2      61.510  40.879  48.930  1.00  0.00     0.034 C 
BRANCH   7  10
ATOM     10  C   PRO     2      60.820  42.959  47.630  1.00  0.00     0.272 C 
ATOM     11  O   PRO     2      60.866  43.947  48.352  1.00  0.00    -0.269 OA
ATOM     12  N   MET     3      60.096  42.928  46.512  1.00  0.00    -0.229 NA
BRANCH  12  13
ATOM     13  CA  MET     3      58.929  43.798  46.281  1.00  0.00     0.187 C 
BRANCH  13  14
ATOM     14  C   MET     3      57.609  43.335  46.948  1.00  0.00     0.274 C 
ATOM     15  N   THR     4      57.365  42.025  46.990  1.00  0.00    -0.226 NA
ATOM     16  O   MET     3      56.788  44.163  47.326  1.00  0.00    -0.268 OA
BRANCH  15  17
ATOM     17  CA  THR     4      56.085  41.452  47.502  1.00  0.00     0.216 C 
BRANCH  17  18
ATOM     18  CB  THR     4      55.673  40.142  46.790  1.00  0.00     0.184 C 
ATOM     19  OG1 THR     4      55.775  40.293  45.358  1.00  0.00    -0.221 OA
ATOM     20  CG2 THR     4      54.304  39.595  47.214  1.00  0.00     0.038 C 
ENDBRANCH  17  18
BRANCH  17  21
ATOM     21  C   THR     4      56.048  41.156  49.018  1.00  0.00     0.277 C 
ATOM     22  O   THR     4      56.911  40.425  49.517  1.00  0.00    -0.268 OA
ATOM     23  N   GLY     5      55.295  41.953  49.757  1.00  0.00    -0.225 NA
BRANCH  23  24
ATOM     24  CA  GLY     5      55.220  41.961  51.226  1.00  0.00     0.226 C 
BRANCH  24  25
ATOM     25  C   GLY     5      55.875  43.281  51.652  1.00  0.00     0.211 C 
ATOM     26  O1  GLY     5      55.142  44.304  51.596  1.00  0.00    -0.646 OA
ATOM     27  O2  GLY     5      57.029  43.216  52.107  1.00  0.00    -0.646 OA
ENDBRANCH  24  25
ENDBRANCH  23  24
ENDBRANCH  17  21
ENDBRANCH  15  17
ENDBRANCH  13  14
BRANCH  13  28
ATOM     28  CB  MET     3      58.747  43.929  44.758  1.00  0.00     0.046 C 
BRANCH  28  29
ATOM     29  CG  MET     3      59.950  43.461  43.924  1.00  0.00     0.060 C 
BRANCH  29  30
ATOM     30  SD  MET     3      59.519  42.497  42.415  1.00  0.00    -0.139 SA
ATOM     31  CE  MET     3      58.041  41.699  43.017  1.00  0.00     0.069 C 
ENDBRANCH  29  30
ENDBRANCH  28  29
ENDBRANCH  13  28
ENDBRANCH  12  13
ENDBRANCH   7  10
ENDBRANCH   2   3
BRANCH   2  32
ATOM     32  CB  LEU     1      65.719  44.006  48.926  1.00  0.00     0.049 C 
BRANCH  32  33
ATOM     33  CG  LEU     1      65.081  45.395  49.065  1.00  0.00     0.003 C 
ATOM     34  CD1 LEU     1      63.983  45.346  50.125  1.00  0.00     0.000 C 
ATOM     35  CD2 LEU     1      66.128  46.444  49.460  1.00  0.00     0.000 C 
ENDBRANCH  32  33
ENDBRANCH   2  32
TORSDOF 14
ENDMDL
MODEL 3
REMARK VINA RESULT:      -5.1      2.645      7.394
REMARK  14 active torsions:
REMARK  status: ('A' for Active; 'I' for Inactive)
REMARK    1  A    between atoms: CA_2  and  C_7 
REMARK    2  A    between atoms: CA_2  and  CB_3 
REMARK    3  A    between atoms: CB_3  and  CG_4 
REMARK       I    between atoms: C_7  and  N_9 
REMARK    4  A    between atoms: CA_10  and  C_14 
REMARK       I    between atoms: C_14  and  N_16 
REMARK    5  A    between atoms: N_16  and  CA_17 
REMARK    6  A    between atoms: CA_17  and  C_22 
REMARK    7  A    between atoms: CA_17  and  CB_18 
REMARK    8  A    between atoms: CB_18  and  CG_19 
REMARK    9  A    between atoms: CG_19  and  SD_20 
REMARK       I    between atoms: C_22  and  N_24 
REMARK   10  A    between atoms: N_24  and  CA_25 
REMARK   11  A    between atoms: CA_25  and  CB_26 
REMARK   12  A    between atoms: CA_25  and  C_29 
REMARK       I    between atoms: C_29  and  N_31 
REMARK   13  A    between atoms: N_31  and  CA_32 
REMARK   14  A    between atoms: CA_32  and  C_33 
ROOT
ATOM      1  N   LEU     1      58.071  43.348  45.883  1.00  0.00     0.626 N 
ATOM      2  CA  LEU     1      57.563  42.195  46.651  1.00  0.00     0.379 C 
ENDROOT
BRANCH   2   3
ATOM      3  C   LEU     1      56.857  42.735  47.916  1.00  0.00     0.271 C 
ATOM      4  O   LEU     1      57.338  43.768  48.387  1.00  0.00    -0.270 OA
ATOM      5  N   PRO     2      55.801  42.111  48.458  1.00  0.00    -0.312 N 
ATOM      6  CD  PRO     2      55.269  40.790  48.064  1.00  0.00     0.105 C 
ATOM      7  CA  PRO     2      55.016  42.650  49.596  1.00  0.00     0.165 C 
ATOM      8  CG  PRO     2      54.490  40.324  49.290  1.00  0.00     0.027 C 
ATOM      9  CB  PRO     2      53.902  41.624  49.842  1.00  0.00     0.034 C 
BRANCH   7  10
ATOM     10  C   PRO     2      55.761  43.002  50.906  1.00  0.00     0.272 C 
ATOM     11  O   PRO     2      55.403  43.975  51.557  1.00  0.00    -0.269 OA
ATOM     12  N   MET     3      56.552  42.057  51.416  1.00  0.00    -0.229 NA
BRANCH  12  13
ATOM     13  CA  MET     3      57.465  42.294  52.549  1.00  0.00     0.187 C 
BRANCH  13  14
ATOM     14  C   MET     3      58.963  42.439  52.181  1.00  0.00     0.274 C 
ATOM     15  N   THR     4      59.366  41.922  51.021  1.00  0.00    -0.226 NA
ATOM     16  O   MET     3      59.748  42.927  52.986  1.00  0.00    -0.268 OA
BRANCH  15  17
ATOM     17  CA  THR     4      60.797  41.896  50.596  1.00  0.00     0.216 C 
BRANCH  17  18
ATOM     18  CB  THR     4      61.190  40.598  49.852  1.00  0.00     0.184 C 
ATOM     19  OG1 THR     4      60.996  39.449  50.705  1.00  0.00    -0.221 OA
ATOM     20  CG2 THR     4      62.594  40.623  49.234  1.00  0.00     0.038 C 
ENDBRANCH  17  18
BRANCH  17  21
ATOM     21  C   THR     4      61.246  43.068  49.696  1.00  0.00     0.277 C 
ATOM     22  O   THR     4      60.527  43.425  48.756  1.00  0.00    -0.268 OA
ATOM     23  N   GLY     5      62.213  43.838  50.167  1.00  0.00    -0.225 NA
BRANCH  23  24
ATOM     24  CA  GLY     5      62.699  45.089  49.565  1.00  0.00     0.226 C 
BRANCH  24  25
ATOM     25  C   GLY     5      63.235  45.916  50.740  1.00  0.00     0.211 C 
ATOM     26  O1  GLY     5      62.401  46.194  51.644  1.00  0.00    -0.646 OA
ATOM     27  O2  GLY     5      64.453  46.153  50.755  1.00  0.00    -0.646 OA
ENDBRANCH  24  25
ENDBRANCH  23  24
ENDBRANCH  17  21
ENDBRANCH  15  17
ENDBRANCH  13  14
BRANCH  13  28
ATOM     28  CB  MET     3      57.264  41.140  53.549  1.00  0.00     0.046 C 
BRANCH  28  29
ATOM     29  CG  MET     3      55.797  40.781  53.831  1.00  0.00     0.060 C 
BRANCH  29  30
ATOM     30  SD  MET     3      55.254  39.154  53.160  1.00  0.00    -0.139 SA
ATOM     31  CE  MET     3      56.205  38.089  54.230  1.00  0.00     0.069 C 
ENDBRANCH  29  30
ENDBRANCH  28  29
ENDBRANCH  13  28
ENDBRANCH  12  13
ENDBRANCH   7  10
ENDBRANCH   2   3
BRANCH   2  32
ATOM     32  CB  LEU     1      58.760  41.300  47.007  1.00  0.00     0.049 C 
BRANCH  32  33
ATOM     33  CG  LEU     1      58.654  39.876  46.444  1.00  0.00     0.003 C 
ATOM     34  CD1 LEU     1      58.406  38.894  47.587  1.00  0.00     0.000 C 
ATOM     35  CD2 LEU     1      57.514  39.771  45.423  1.00  0.00     0.000 C 
ENDBRANCH  32  33
ENDBRANCH   2  32
TORSDOF 14
ENDMDL
MODEL 4
REMARK VINA RESULT:      -5.0      2.935      7.677
REMARK  14 active torsions:
REMARK  status: ('A' for Active; 'I' for Inactive)
REMARK    1  A    between atoms: CA_2  and  C_7 
REMARK    2  A    between atoms: CA_2  and  CB_3 
REMARK    3  A    between atoms: CB_3  and  CG_4 
REMARK       I    between atoms: C_7  and  N_9 
REMARK    4  A    between atoms: CA_10  and  C_14 
REMARK       I    between atoms: C_14  and  N_16 
REMARK    5  A    between atoms: N_16  and  CA_17 
REMARK    6  A    between atoms: CA_17  and  C_22 
REMARK    7  A    between atoms: CA_17  and  CB_18 
REMARK    8  A    between atoms: CB_18  and  CG_19 
REMARK    9  A    between atoms: CG_19  and  SD_20 
REMARK       I    between atoms: C_22  and  N_24 
REMARK   10  A    between atoms: N_24  and  CA_25 
REMARK   11  A    between atoms: CA_25  and  CB_26 
REMARK   12  A    between atoms: CA_25  and  C_29 
REMARK       I    between atoms: C_29  and  N_31 
REMARK   13  A    between atoms: N_31  and  CA_32 
REMARK   14  A    between atoms: CA_32  and  C_33 
ROOT
ATOM      1  N   LEU     1      58.554  43.410  46.325  1.00  0.00     0.626 N 
ATOM      2  CA  LEU     1      57.754  42.283  46.843  1.00  0.00     0.379 C 
ENDROOT
BRANCH   2   3
ATOM      3  C   LEU     1      57.088  42.734  48.163  1.00  0.00     0.271 C 
ATOM      4  O   LEU     1      57.701  43.599  48.793  1.00  0.00    -0.270 OA
ATOM      5  N   PRO     2      55.929  42.208  48.586  1.00  0.00    -0.312 N 
ATOM      6  CD  PRO     2      55.220  41.058  47.988  1.00  0.00     0.105 C 
ATOM      7  CA  PRO     2      55.190  42.690  49.781  1.00  0.00     0.165 C 
ATOM      8  CG  PRO     2      54.332  40.543  49.117  1.00  0.00     0.027 C 
ATOM      9  CB  PRO     2      53.925  41.823  49.850  1.00  0.00     0.034 C 
BRANCH   7  10
ATOM     10  C   PRO     2      55.928  42.724  51.141  1.00  0.00     0.272 C 
ATOM     11  O   PRO     2      55.770  43.685  51.883  1.00  0.00    -0.269 OA
ATOM     12  N   MET     3      56.452  41.575  51.566  1.00  0.00    -0.229 NA
BRANCH  12  13
ATOM     13  CA  MET     3      57.335  41.477  52.742  1.00  0.00     0.187 C 
BRANCH  13  14
ATOM     14  C   MET     3      58.663  42.271  52.650  1.00  0.00     0.274 C 
ATOM     15  N   THR     4      59.656  41.731  51.944  1.00  0.00    -0.226 NA
ATOM     16  O   MET     3      58.805  43.306  53.290  1.00  0.00    -0.268 OA
BRANCH  15  17
ATOM     17  CA  THR     4      61.019  42.336  51.865  1.00  0.00     0.216 C 
BRANCH  17  18
ATOM     18  CB  THR     4      62.150  41.342  52.221  1.00  0.00     0.184 C 
ATOM     19  OG1 THR     4      61.721  39.983  51.983  1.00  0.00    -0.221 OA
ATOM     20  CG2 THR     4      62.732  41.522  53.629  1.00  0.00     0.038 C 
ENDBRANCH  17  18
BRANCH  17  21
ATOM     21  C   THR     4      61.395  42.955  50.501  1.00  0.00     0.277 C 
ATOM     22  O   THR     4      60.680  42.738  49.516  1.00  0.00    -0.268 OA
ATOM     23  N   GLY     5      62.273  43.943  50.523  1.00  0.00    -0.225 NA
BRANCH  23  24
ATOM     24  CA  GLY     5      62.669  44.780  49.380  1.00  0.00     0.226 C 
BRANCH  24  25
ATOM     25  C   GLY     5      62.713  46.211  49.929  1.00  0.00     0.211 C 
ATOM     26  O1  GLY     5      62.952  47.118  49.086  1.00  0.00    -0.646 OA
ATOM     27  O2  GLY     5      62.412  46.367  51.123  1.00  0.00    -0.646 OA
ENDBRANCH  24  25
ENDBRANCH  23  24
ENDBRANCH  17  21
ENDBRANCH  15  17
ENDBRANCH  13  14
BRANCH  13  28
ATOM     28  CB  MET     3      57.616  39.982  52.983  1.00  0.00     0.046 C 
BRANCH  28  29
ATOM     29  CG  MET     3      56.902  39.381  54.204  1.00  0.00     0.060 C 
BRANCH  29  30
ATOM     30  SD  MET     3      57.262  40.220  55.803  1.00  0.00    -0.139 SA
ATOM     31  CE  MET     3      55.618  40.199  56.496  1.00  0.00     0.069 C 
ENDBRANCH  29  30
ENDBRANCH  28  29
ENDBRANCH  13  28
ENDBRANCH  12  13
ENDBRANCH   7  10
ENDBRANCH   2   3
BRANCH   2  32
ATOM     32  CB  LEU     1      58.700  41.093  47.061  1.00  0.00     0.049 C 
BRANCH  32  33
ATOM     33  CG  LEU     1      58.694  40.080  45.909  1.00  0.00     0.003 C 
ATOM     34  CD1 LEU     1      57.425  40.261  45.079  1.00  0.00     0.000 C 
ATOM     35  CD2 LEU     1      59.923  40.262  45.010  1.00  0.00     0.000 C 
ENDBRANCH  32  33
ENDBRANCH   2  32
TORSDOF 14
ENDMDL
MODEL 5
REMARK VINA RESULT:      -4.9      2.357      3.823
REMARK  14 active torsions:
REMARK  status: ('A' for Active; 'I' for Inactive)
REMARK    1  A    between atoms: CA_2  and  C_7 
REMARK    2  A    between atoms: CA_2  and  CB_3 
REMARK    3  A    between atoms: CB_3  and  CG_4 
REMARK       I    between atoms: C_7  and  N_9 
REMARK    4  A    between atoms: CA_10  and  C_14 
REMARK       I    between atoms: C_14  and  N_16 
REMARK    5  A    between atoms: N_16  and  CA_17 
REMARK    6  A    between atoms: CA_17  and  C_22 
REMARK    7  A    between atoms: CA_17  and  CB_18 
REMARK    8  A    between atoms: CB_18  and  CG_19 
REMARK    9  A    between atoms: CG_19  and  SD_20 
REMARK       I    between atoms: C_22  and  N_24 
REMARK   10  A    between atoms: N_24  and  CA_25 
REMARK   11  A    between atoms: CA_25  and  CB_26 
REMARK   12  A    between atoms: CA_25  and  C_29 
REMARK       I    between atoms: C_29  and  N_31 
REMARK   13  A    between atoms: N_31  and  CA_32 
REMARK   14  A    between atoms: CA_32  and  C_33 
ROOT
ATOM      1  N   LEU     1      66.626  44.052  48.940  1.00  0.00     0.626 N 
ATOM      2  CA  LEU     1      65.178  44.047  48.656  1.00  0.00     0.379 C 
ENDROOT
BRANCH   2   3
ATOM      3  C   LEU     1      64.971  43.493  47.227  1.00  0.00     0.271 C 
ATOM      4  O   LEU     1      65.182  44.297  46.316  1.00  0.00    -0.270 OA
ATOM      5  N   PRO     2      64.582  42.229  47.008  1.00  0.00    -0.312 N 
ATOM      6  CD  PRO     2      64.148  41.257  48.033  1.00  0.00     0.105 C 
ATOM      7  CA  PRO     2      64.485  41.615  45.660  1.00  0.00     0.165 C 
ATOM      8  CG  PRO     2      63.319  40.242  47.252  1.00  0.00     0.027 C 
ATOM      9  CB  PRO     2      64.041  40.167  45.906  1.00  0.00     0.034 C 
BRANCH   7  10
ATOM     10  C   PRO     2      63.599  42.307  44.596  1.00  0.00     0.272 C 
ATOM     11  O   PRO     2      64.126  42.807  43.611  1.00  0.00    -0.269 OA
ATOM     12  N   MET     3      62.291  42.056  44.653  1.00  0.00    -0.229 NA
BRANCH  12  13
ATOM     13  CA  MET     3      61.296  42.771  43.834  1.00  0.00     0.187 C 
BRANCH  13  14
ATOM     14  C   MET     3      59.950  43.081  44.537  1.00  0.00     0.274 C 
ATOM     15  N   THR     4      59.406  42.117  45.280  1.00  0.00    -0.226 NA
ATOM     16  O   MET     3      59.376  44.142  44.324  1.00  0.00    -0.268 OA
BRANCH  15  17
ATOM     17  CA  THR     4      58.064  42.243  45.920  1.00  0.00     0.216 C 
BRANCH  17  18
ATOM     18  CB  THR     4      57.302  40.900  46.013  1.00  0.00     0.184 C 
ATOM     19  OG1 THR     4      58.208  39.792  45.820  1.00  0.00    -0.221 OA
ATOM     20  CG2 THR     4      56.073  40.805  45.099  1.00  0.00     0.038 C 
ENDBRANCH  17  18
BRANCH  17  21
ATOM     21  C   THR     4      58.058  42.847  47.342  1.00  0.00     0.277 C 
ATOM     22  O   THR     4      58.289  44.052  47.494  1.00  0.00    -0.268 OA
ATOM     23  N   GLY     5      57.491  42.120  48.290  1.00  0.00    -0.225 NA
BRANCH  23  24
ATOM     24  CA  GLY     5      57.234  42.545  49.675  1.00  0.00     0.226 C 
BRANCH  24  25
ATOM     25  C   GLY     5      55.813  43.122  49.658  1.00  0.00     0.211 C 
ATOM     26  O1  GLY     5      55.003  42.569  48.866  1.00  0.00    -0.646 OA
ATOM     27  O2  GLY     5      55.553  44.008  50.489  1.00  0.00    -0.646 OA
ENDBRANCH  24  25
ENDBRANCH  23  24
ENDBRANCH  17  21
ENDBRANCH  15  17
ENDBRANCH  13  14
BRANCH  13  28
ATOM     28  CB  MET     3      61.061  41.936  42.562  1.00  0.00     0.046 C 
BRANCH  28  29
ATOM     29  CG  MET     3      60.277  42.657  41.454  1.00  0.00     0.060 C 
BRANCH  29  30
ATOM     30  SD  MET     3      58.606  41.964  41.110  1.00  0.00    -0.139 SA
ATOM     31  CE  MET     3      58.714  40.489  42.108  1.00  0.00     0.069 C 
ENDBRANCH  29  30
ENDBRANCH  28  29
ENDBRANCH  13  28
ENDBRANCH  12  13
ENDBRANCH   7  10
ENDBRANCH   2   3
BRANCH   2  32
ATOM     32  CB  LEU     1      64.666  45.490  48.785  1.00  0.00     0.049 C 
BRANCH  32  33
ATOM     33  CG  LEU     1      63.741  45.710  49.990  1.00  0.00     0.003 C 
ATOM     34  CD1 LEU     1      62.567  46.594  49.574  1.00  0.00     0.000 C 
ATOM     35  CD2 LEU     1      63.211  44.376  50.528  1.00  0.00     0.000 C 
ENDBRANCH  32  33
ENDBRANCH   2  32
TORSDOF 14
ENDMDL
MODEL 6
REMARK VINA RESULT:      -4.8      2.883      7.034
REMARK  14 active torsions:
REMARK  status: ('A' for Active; 'I' for Inactive)
REMARK    1  A    between atoms: CA_2  and  C_7 
REMARK    2  A    between atoms: CA_2  and  CB_3 
REMARK    3  A    between atoms: CB_3  and  CG_4 
REMARK       I    between atoms: C_7  and  N_9 
REMARK    4  A    between atoms: CA_10  and  C_14 
REMARK       I    between atoms: C_14  and  N_16 
REMARK    5  A    between atoms: N_16  and  CA_17 
REMARK    6  A    between atoms: CA_17  and  C_22 
REMARK    7  A    between atoms: CA_17  and  CB_18 
REMARK    8  A    between atoms: CB_18  and  CG_19 
REMARK    9  A    between atoms: CG_19  and  SD_20 
REMARK       I    between atoms: C_22  and  N_24 
REMARK   10  A    between atoms: N_24  and  CA_25 
REMARK   11  A    between atoms: CA_25  and  CB_26 
REMARK   12  A    between atoms: CA_25  and  C_29 
REMARK       I    between atoms: C_29  and  N_31 
REMARK   13  A    between atoms: N_31  and  CA_32 
REMARK   14  A    between atoms: CA_32  and  C_33 
ROOT
ATOM      1  N   LEU     1      58.225  40.111  54.864  1.00  0.00     0.626 N 
ATOM      2  CA  LEU     1      58.223  40.685  53.505  1.00  0.00     0.379 C 
ENDROOT
BRANCH   2   3
ATOM      3  C   LEU     1      59.462  41.601  53.368  1.00  0.00     0.271 C 
ATOM      4  O   LEU     1      59.226  42.811  53.395  1.00  0.00    -0.270 OA
ATOM      5  N   PRO     2      60.698  41.102  53.225  1.00  0.00    -0.312 N 
ATOM      6  CD  PRO     2      61.050  39.683  53.014  1.00  0.00     0.105 C 
ATOM      7  CA  PRO     2      61.928  41.933  53.210  1.00  0.00     0.165 C 
ATOM      8  CG  PRO     2      62.434  39.736  52.375  1.00  0.00     0.027 C 
ATOM      9  CB  PRO     2      63.087  40.938  53.061  1.00  0.00     0.034 C 
BRANCH   7  10
ATOM     10  C   PRO     2      62.031  43.082  52.178  1.00  0.00     0.272 C 
ATOM     11  O   PRO     2      61.848  44.235  52.546  1.00  0.00    -0.269 OA
ATOM     12  N   MET     3      62.612  42.790  51.014  1.00  0.00    -0.229 NA
BRANCH  12  13
ATOM     13  CA  MET     3      62.626  43.713  49.865  1.00  0.00     0.187 C 
BRANCH  13  14
ATOM     14  C   MET     3      62.055  43.142  48.543  1.00  0.00     0.274 C 
ATOM     15  N   THR     4      60.996  42.338  48.624  1.00  0.00    -0.226 NA
ATOM     16  O   MET     3      62.632  43.355  47.482  1.00  0.00    -0.268 OA
BRANCH  15  17
ATOM     17  CA  THR     4      60.416  41.635  47.442  1.00  0.00     0.216 C 
BRANCH  17  18
ATOM     18  CB  THR     4      59.858  40.232  47.778  1.00  0.00     0.184 C 
ATOM     19  OG1 THR     4      59.838  40.026  49.208  1.00  0.00    -0.221 OA
ATOM     20  CG2 THR     4      60.556  39.080  47.042  1.00  0.00     0.038 C 
ENDBRANCH  17  18
BRANCH  17  21
ATOM     21  C   THR     4      59.285  42.389  46.708  1.00  0.00     0.277 C 
ATOM     22  O   THR     4      58.787  41.898  45.689  1.00  0.00    -0.268 OA
ATOM     23  N   GLY     5      58.686  43.357  47.382  1.00  0.00    -0.225 NA
BRANCH  23  24
ATOM     24  CA  GLY     5      57.496  44.107  46.953  1.00  0.00     0.226 C 
BRANCH  24  25
ATOM     25  C   GLY     5      56.427  43.799  48.009  1.00  0.00     0.211 C 
ATOM     26  O1  GLY     5      56.106  42.586  48.131  1.00  0.00    -0.646 OA
ATOM     27  O2  GLY     5      56.047  44.744  48.719  1.00  0.00    -0.646 OA
ENDBRANCH  24  25
ENDBRANCH  23  24
ENDBRANCH  17  21
ENDBRANCH  15  17
ENDBRANCH  13  14
BRANCH  13  28
ATOM     28  CB  MET     3      64.081  44.179  49.669  1.00  0.00     0.046 C 
BRANCH  28  29
ATOM     29  CG  MET     3      64.347  45.640  50.066  1.00  0.00     0.060 C 
BRANCH  29  30
ATOM     30  SD  MET     3      66.002  46.286  49.580  1.00  0.00    -0.139 SA
ATOM     31  CE  MET     3      66.313  45.212  48.190  1.00  0.00     0.069 C 
ENDBRANCH  29  30
ENDBRANCH  28  29
ENDBRANCH  13  28
ENDBRANCH  12  13
ENDBRANCH   7  10
ENDBRANCH   2   3
BRANCH   2  32
ATOM     32  CB  LEU     1      56.914  41.469  53.325  1.00  0.00     0.049 C 
BRANCH  32  33
ATOM     33  CG  LEU     1      56.641  41.887  51.874  1.00  0.00     0.003 C 
ATOM     34  CD1 LEU     1      55.835  40.795  51.173  1.00  0.00     0.000 C 
ATOM     35  CD2 LEU     1      55.866  43.209  51.818  1.00  0.00     0.000 C 
ENDBRANCH  32  33
ENDBRANCH   2  32
TORSDOF 14
ENDMDL
MODEL 7
REMARK VINA RESULT:      -4.8      2.850      7.139
REMARK  14 active torsions:
REMARK  status: ('A' for Active; 'I' for Inactive)
REMARK    1  A    between atoms: CA_2  and  C_7 
REMARK    2  A    between atoms: CA_2  and  CB_3 
REMARK    3  A    between atoms: CB_3  and  CG_4 
REMARK       I    between atoms: C_7  and  N_9 
REMARK    4  A    between atoms: CA_10  and  C_14 
REMARK       I    between atoms: C_14  and  N_16 
REMARK    5  A    between atoms: N_16  and  CA_17 
REMARK    6  A    between atoms: CA_17  and  C_22 
REMARK    7  A    between atoms: CA_17  and  CB_18 
REMARK    8  A    between atoms: CB_18  and  CG_19 
REMARK    9  A    between atoms: CG_19  and  SD_20 
REMARK       I    between atoms: C_22  and  N_24 
REMARK   10  A    between atoms: N_24  and  CA_25 
REMARK   11  A    between atoms: CA_25  and  CB_26 
REMARK   12  A    between atoms: CA_25  and  C_29 
REMARK       I    between atoms: C_29  and  N_31 
REMARK   13  A    between atoms: N_31  and  CA_32 
REMARK   14  A    between atoms: CA_32  and  C_33 
ROOT
ATOM      1  N   LEU     1      58.932  41.297  42.232  1.00  0.00     0.626 N 
ATOM      2  CA  LEU     1      59.673  41.401  43.503  1.00  0.00     0.379 C 
ENDROOT
BRANCH   2   3
ATOM      3  C   LEU     1      58.671  41.800  44.612  1.00  0.00     0.271 C 
ATOM      4  O   LEU     1      58.663  42.998  44.907  1.00  0.00    -0.270 OA
ATOM      5  N   PRO     2      57.879  40.898  45.207  1.00  0.00    -0.312 N 
ATOM      6  CD  PRO     2      57.942  39.431  45.038  1.00  0.00     0.105 C 
ATOM      7  CA  PRO     2      56.820  41.246  46.187  1.00  0.00     0.165 C 
ATOM      8  CG  PRO     2      57.263  38.885  46.290  1.00  0.00     0.027 C 
ATOM      9  CB  PRO     2      56.162  39.911  46.564  1.00  0.00     0.034 C 
BRANCH   7  10
ATOM     10  C   PRO     2      57.215  42.057  47.445  1.00  0.00     0.272 C 
ATOM     11  O   PRO     2      56.486  42.962  47.828  1.00  0.00    -0.269 OA
ATOM     12  N   MET     3      58.166  41.534  48.219  1.00  0.00    -0.229 NA
BRANCH  12  13
ATOM     13  CA  MET     3      58.781  42.260  49.345  1.00  0.00     0.187 C 
BRANCH  13  14
ATOM     14  C   MET     3      60.024  43.114  48.990  1.00  0.00     0.274 C 
ATOM     15  N   THR     4      61.008  43.173  49.887  1.00  0.00    -0.226 NA
ATOM     16  O   MET     3      60.039  43.780  47.961  1.00  0.00    -0.268 OA
BRANCH  15  17
ATOM     17  CA  THR     4      62.209  44.044  49.719  1.00  0.00     0.216 C 
BRANCH  17  18
ATOM     18  CB  THR     4      62.737  44.621  51.054  1.00  0.00     0.184 C 
ATOM     19  OG1 THR     4      61.924  44.165  52.157  1.00  0.00    -0.221 OA
ATOM     20  CG2 THR     4      62.910  46.146  51.060  1.00  0.00     0.038 C 
ENDBRANCH  17  18
BRANCH  17  21
ATOM     21  C   THR     4      63.419  43.383  49.022  1.00  0.00     0.277 C 
ATOM     22  O   THR     4      63.470  42.152  48.927  1.00  0.00    -0.268 OA
ATOM     23  N   GLY     5      64.175  44.173  48.278  1.00  0.00    -0.225 NA
BRANCH  23  24
ATOM     24  CA  GLY     5      65.282  43.748  47.406  1.00  0.00     0.226 C 
BRANCH  24  25
ATOM     25  C   GLY     5      66.543  44.346  48.042  1.00  0.00     0.211 C 
ATOM     26  O1  GLY     5      66.959  45.423  47.534  1.00  0.00    -0.646 OA
ATOM     27  O2  GLY     5      66.985  43.783  49.056  1.00  0.00    -0.646 OA
ENDBRANCH  24  25
ENDBRANCH  23  24
ENDBRANCH  17  21
ENDBRANCH  15  17
ENDBRANCH  13  14
BRANCH  13  28
ATOM     28  CB  MET     3      59.131  41.221  50.426  1.00  0.00     0.046 C 
BRANCH  28  29
ATOM     29  CG  MET     3      58.140  41.154  51.599  1.00  0.00     0.060 C 
BRANCH  29  30
ATOM     30  SD  MET     3      56.848  42.466  51.597  1.00  0.00    -0.139 SA
ATOM     31  CE  MET     3      55.483  41.501  50.973  1.00  0.00     0.069 C 
ENDBRANCH  29  30
ENDBRANCH  28  29
ENDBRANCH  13  28
ENDBRANCH  12  13
ENDBRANCH   7  10
ENDBRANCH   2   3
BRANCH   2  32
ATOM     32  CB  LEU     1      60.773  42.459  43.324  1.00  0.00     0.049 C 
BRANCH  32  33
ATOM     33  CG  LEU     1      62.090  42.105  44.028  1.00  0.00     0.003 C 
ATOM     34  CD1 LEU     1      63.265  42.499  43.136  1.00  0.00     0.000 C 
ATOM     35  CD2 LEU     1      62.205  42.827  45.376  1.00  0.00     0.000 C 
ENDBRANCH  32  33
ENDBRANCH   2  32
TORSDOF 14
ENDMDL
MODEL 8
REMARK VINA RESULT:      -4.7      2.732      7.174
REMARK  14 active torsions:
REMARK  status: ('A' for Active; 'I' for Inactive)
REMARK    1  A    between atoms: CA_2  and  C_7 
REMARK    2  A    between atoms: CA_2  and  CB_3 
REMARK    3  A    between atoms: CB_3  and  CG_4 
REMARK       I    between atoms: C_7  and  N_9 
REMARK    4  A    between atoms: CA_10  and  C_14 
REMARK       I    between atoms: C_14  and  N_16 
REMARK    5  A    between atoms: N_16  and  CA_17 
REMARK    6  A    between atoms: CA_17  and  C_22 
REMARK    7  A    between atoms: CA_17  and  CB_18 
REMARK    8  A    between atoms: CB_18  and  CG_19 
REMARK    9  A    between atoms: CG_19  and  SD_20 
REMARK       I    between atoms: C_22  and  N_24 
REMARK   10  A    between atoms: N_24  and  CA_25 
REMARK   11  A    between atoms: CA_25  and  CB_26 
REMARK   12  A    between atoms: CA_25  and  C_29 
REMARK       I    between atoms: C_29  and  N_31 
REMARK   13  A    between atoms: N_31  and  CA_32 
REMARK   14  A    between atoms: CA_32  and  C_33 
ROOT
ATOM      1  N   LEU     1      57.602  40.976  54.448  1.00  0.00     0.626 N 
ATOM      2  CA  LEU     1      58.353  40.698  53.208  1.00  0.00     0.379 C 
ENDROOT
BRANCH   2   3
ATOM      3  C   LEU     1      59.564  41.659  53.155  1.00  0.00     0.271 C 
ATOM      4  O   LEU     1      59.281  42.856  53.061  1.00  0.00    -0.270 OA
ATOM      5  N   PRO     2      60.826  41.210  53.202  1.00  0.00    -0.312 N 
ATOM      6  CD  PRO     2      61.255  39.797  53.144  1.00  0.00     0.105 C 
ATOM      7  CA  PRO     2      62.016  42.095  53.274  1.00  0.00     0.165 C 
ATOM      8  CG  PRO     2      62.706  39.870  52.676  1.00  0.00     0.027 C 
ATOM      9  CB  PRO     2      63.222  41.147  53.343  1.00  0.00     0.034 C 
BRANCH   7  10
ATOM     10  C   PRO     2      62.204  43.171  52.178  1.00  0.00     0.272 C 
ATOM     11  O   PRO     2      62.048  44.351  52.465  1.00  0.00    -0.269 OA
ATOM     12  N   MET     3      62.821  42.786  51.061  1.00  0.00    -0.229 NA
BRANCH  12  13
ATOM     13  CA  MET     3      62.916  43.633  49.858  1.00  0.00     0.187 C 
BRANCH  13  14
ATOM     14  C   MET     3      61.691  43.589  48.911  1.00  0.00     0.274 C 
ATOM     15  N   THR     4      61.350  42.407  48.398  1.00  0.00    -0.226 NA
ATOM     16  O   MET     3      61.131  44.629  48.582  1.00  0.00    -0.268 OA
BRANCH  15  17
ATOM     17  CA  THR     4      60.262  42.243  47.389  1.00  0.00     0.216 C 
BRANCH  17  18
ATOM     18  CB  THR     4      60.789  42.046  45.948  1.00  0.00     0.184 C 
ATOM     19  OG1 THR     4      62.186  41.681  45.967  1.00  0.00    -0.221 OA
ATOM     20  CG2 THR     4      60.517  43.227  45.007  1.00  0.00     0.038 C 
ENDBRANCH  17  18
BRANCH  17  21
ATOM     21  C   THR     4      59.276  41.083  47.655  1.00  0.00     0.277 C 
ATOM     22  O   THR     4      59.715  39.966  47.950  1.00  0.00    -0.268 OA
ATOM     23  N   GLY     5      58.015  41.418  47.874  1.00  0.00    -0.225 NA
BRANCH  23  24
ATOM     24  CA  GLY     5      56.936  40.512  48.294  1.00  0.00     0.226 C 
BRANCH  24  25
ATOM     25  C   GLY     5      55.643  41.178  47.805  1.00  0.00     0.211 C 
ATOM     26  O1  GLY     5      55.081  41.956  48.622  1.00  0.00    -0.646 OA
ATOM     27  O2  GLY     5      55.317  40.977  46.624  1.00  0.00    -0.646 OA
ENDBRANCH  24  25
ENDBRANCH  23  24
ENDBRANCH  17  21
ENDBRANCH  15  17
ENDBRANCH  13  14
BRANCH  13  28
ATOM     28  CB  MET     3      64.195  43.220  49.106  1.00  0.00     0.046 C 
BRANCH  28  29
ATOM     29  CG  MET     3      65.204  44.357  48.880  1.00  0.00     0.060 C 
BRANCH  29  30
ATOM     30  SD  MET     3      64.850  45.904  49.814  1.00  0.00    -0.139 SA
ATOM     31  CE  MET     3      66.475  46.637  49.749  1.00  0.00     0.069 C 
ENDBRANCH  29  30
ENDBRANCH  28  29
ENDBRANCH  13  28
ENDBRANCH  12  13
ENDBRANCH   7  10
ENDBRANCH   2   3
BRANCH   2  32
ATOM     32  CB  LEU     1      57.404  40.914  52.021  1.00  0.00     0.049 C 
BRANCH  32  33
ATOM     33  CG  LEU     1      55.999  41.376  52.431  1.00  0.00     0.003 C 
ATOM     34  CD1 LEU     1      55.793  42.825  51.998  1.00  0.00     0.000 C 
ATOM     35  CD2 LEU     1      54.921  40.492  51.791  1.00  0.00     0.000 C 
ENDBRANCH  32  33
ENDBRANCH   2  32
TORSDOF 14
ENDMDL
MODEL 9
REMARK VINA RESULT:      -4.7      3.522      8.739
REMARK  14 active torsions:
REMARK  status: ('A' for Active; 'I' for Inactive)
REMARK    1  A    between atoms: CA_2  and  C_7 
REMARK    2  A    between atoms: CA_2  and  CB_3 
REMARK    3  A    between atoms: CB_3  and  CG_4 
REMARK       I    between atoms: C_7  and  N_9 
REMARK    4  A    between atoms: CA_10  and  C_14 
REMARK       I    between atoms: C_14  and  N_16 
REMARK    5  A    between atoms: N_16  and  CA_17 
REMARK    6  A    between atoms: CA_17  and  C_22 
REMARK    7  A    between atoms: CA_17  and  CB_18 
REMARK    8  A    between atoms: CB_18  and  CG_19 
REMARK    9  A    between atoms: CG_19  and  SD_20 
REMARK       I    between atoms: C_22  and  N_24 
REMARK   10  A    between atoms: N_24  and  CA_25 
REMARK   11  A    between atoms: CA_25  and  CB_26 
REMARK   12  A    between atoms: CA_25  and  C_29 
REMARK       I    between atoms: C_29  and  N_31 
REMARK   13  A    between atoms: N_31  and  CA_32 
REMARK   14  A    between atoms: CA_32  and  C_33 
ROOT
ATOM      1  N   LEU     1      51.772  39.584  49.661  1.00  0.00     0.626 N 
ATOM      2  CA  LEU     1      53.236  39.410  49.591  1.00  0.00     0.379 C 
ENDROOT
BRANCH   2   3
ATOM      3  C   LEU     1      53.881  40.811  49.475  1.00  0.00     0.271 C 
ATOM      4  O   LEU     1      53.710  41.380  48.395  1.00  0.00    -0.270 OA
ATOM      5  N   PRO     2      54.580  41.353  50.482  1.00  0.00    -0.312 N 
ATOM      6  CD  PRO     2      54.975  40.679  51.736  1.00  0.00     0.105 C 
ATOM      7  CA  PRO     2      55.115  42.738  50.465  1.00  0.00     0.165 C 
ATOM      8  CG  PRO     2      56.164  41.494  52.236  1.00  0.00     0.027 C 
ATOM      9  CB  PRO     2      55.803  42.923  51.825  1.00  0.00     0.034 C 
BRANCH   7  10
ATOM     10  C   PRO     2      56.044  43.156  49.300  1.00  0.00     0.272 C 
ATOM     11  O   PRO     2      55.953  44.286  48.838  1.00  0.00    -0.269 OA
ATOM     12  N   MET     3      57.097  42.373  49.063  1.00  0.00    -0.229 NA
BRANCH  12  13
ATOM     13  CA  MET     3      57.970  42.528  47.886  1.00  0.00     0.187 C 
BRANCH  13  14
ATOM     14  C   MET     3      58.004  41.321  46.915  1.00  0.00     0.274 C 
ATOM     15  N   THR     4      57.154  41.331  45.889  1.00  0.00    -0.226 NA
ATOM     16  O   MET     3      58.723  40.358  47.157  1.00  0.00    -0.268 OA
BRANCH  15  17
ATOM     17  CA  THR     4      57.006  40.184  44.945  1.00  0.00     0.216 C 
BRANCH  17  18
ATOM     18  CB  THR     4      55.533  39.777  44.703  1.00  0.00     0.184 C 
ATOM     19  OG1 THR     4      54.639  40.722  45.332  1.00  0.00    -0.221 OA
ATOM     20  CG2 THR     4      55.205  38.329  45.092  1.00  0.00     0.038 C 
ENDBRANCH  17  18
BRANCH  17  21
ATOM     21  C   THR     4      57.637  40.385  43.549  1.00  0.00     0.277 C 
ATOM     22  O   THR     4      57.202  39.745  42.585  1.00  0.00    -0.268 OA
ATOM     23  N   GLY     5      58.389  41.462  43.391  1.00  0.00    -0.225 NA
BRANCH  23  24
ATOM     24  CA  GLY     5      58.966  41.940  42.125  1.00  0.00     0.226 C 
BRANCH  24  25
ATOM     25  C   GLY     5      59.557  43.318  42.451  1.00  0.00     0.211 C 
ATOM     26  O1  GLY     5      60.116  43.918  41.494  1.00  0.00    -0.646 OA
ATOM     27  O2  GLY     5      59.349  43.765  43.590  1.00  0.00    -0.646 OA
ENDBRANCH  24  25
ENDBRANCH  23  24
ENDBRANCH  17  21
ENDBRANCH  15  17
ENDBRANCH  13  14
BRANCH  13  28
ATOM     28  CB  MET     3      59.386  42.845  48.402  1.00  0.00     0.046 C 
BRANCH  28  29
ATOM     29  CG  MET     3      59.701  42.288  49.800  1.00  0.00     0.060 C 
BRANCH  29  30
ATOM     30  SD  MET     3      61.106  41.100  49.863  1.00  0.00    -0.139 SA
ATOM     31  CE  MET     3      62.443  42.271  50.026  1.00  0.00     0.069 C 
ENDBRANCH  29  30
ENDBRANCH  28  29
ENDBRANCH  13  28
ENDBRANCH  12  13
ENDBRANCH   7  10
ENDBRANCH   2   3
BRANCH   2  32
ATOM     32  CB  LEU     1      53.551  38.536  48.368  1.00  0.00     0.049 C 
BRANCH  32  33
ATOM     33  CG  LEU     1      54.142  37.166  48.725  1.00  0.00     0.003 C 
ATOM     34  CD1 LEU     1      54.977  37.287  49.997  1.00  0.00     0.000 C 
ATOM     35  CD2 LEU     1      53.033  36.127  48.937  1.00  0.00     0.000 C 
ENDBRANCH  32  33
ENDBRANCH   2  32
TORSDOF 14
ENDMDL
