MODEL 1
REMARK VINA RESULT:      -3.6      0.000      0.000
REMARK WARNING: 32 MAX_TORS EXCEEDED!!!
REMARK  63 active torsions:
REMARK  status: ('A' for Active; 'I' for Inactive)
REMARK    1  A    between atoms: N_1  and  CA_2 
REMARK    2  A    between atoms: CA_2  and  C_3 
REMARK    3  A    between atoms: CA_2  and  CB_5 
REMARK       I    between atoms: C_3  and  N_15 
REMARK    4  A    between atoms: CB_5  and  CG_6 
REMARK    5  A    between atoms: N_15  and  CA_16 
REMARK    6  A    between atoms: CA_16  and  CB_19 
REMARK    7  A    between atoms: CA_16  and  C_17 
REMARK       I    between atoms: C_17  and  N_24 
REMARK    8  A    between atoms: CB_19  and  CG1_20 
REMARK    9  A    between atoms: N_24  and  CA_25 
REMARK   10  A    between atoms: CA_25  and  C_26 
REMARK   11  A    between atoms: CA_25  and  CB_28 
REMARK       I    between atoms: C_26  and  N_36 
REMARK   12  A    between atoms: CB_28  and  CG_29 
REMARK   13  A    between atoms: CA_37  and  C_38 
REMARK       I    between atoms: C_38  and  N_43 
REMARK   14  A    between atoms: N_43  and  CA_44 
REMARK   15  A    between atoms: CA_44  and  C_45 
REMARK   16  A    between atoms: CA_44  and  CB_47 
REMARK       I    between atoms: C_45  and  N_56 
REMARK   17  A    between atoms: CB_47  and  CG_48 
REMARK   18  A    between atoms: CG_48  and  CD_49 
REMARK   19  A    between atoms: CD_49  and  CE_50 
REMARK   20  A    between atoms: CE_50  and  NZ_51 
REMARK   21  A    between atoms: N_56  and  CA_57 
REMARK   22  A    between atoms: CA_57  and  CB_60 
REMARK   23  A    between atoms: CA_57  and  C_58 
REMARK       I    between atoms: C_58  and  N_69 
REMARK   24  A    between atoms: CB_60  and  CG_61 
REMARK   25  A    between atoms: CG_61  and  CD_62 
REMARK   26  A    between atoms: CD_62  and  CE_63 
REMARK   27  A    between atoms: CE_63  and  NZ_64 
REMARK   28  A    between atoms: N_69  and  CA_70 
REMARK   29  A    between atoms: CA_70  and  C_71 
REMARK   30  A    between atoms: CA_70  and  CB_73 
REMARK       I    between atoms: C_71  and  N_80 
REMARK   31  A    between atoms: CB_73  and  CG_74 
REMARK       I    between atoms: CG_74  and  ND2_76 
REMARK   32  A    between atoms: N_80  and  CA_81 
REMARK   33  A    between atoms: CA_81  and  C_82 
REMARK   34  A    between atoms: CA_81  and  CB_84 
REMARK       I    between atoms: C_82  and  N_89 
REMARK   35  A    between atoms: CB_84  and  CG1_85 
REMARK   36  A    between atoms: N_89  and  CA_90 
REMARK   37  A    between atoms: CA_90  and  C_91 
REMARK   38  A    between atoms: CA_90  and  CB_93 
REMARK       I    between atoms: C_91  and  N_98 
REMARK   39  A    between atoms: CB_93  and  CG1_94 
REMARK   40  A    between atoms: N_98  and  CA_99 
REMARK   41  A    between atoms: CA_99  and  CB_102 
REMARK   42  A    between atoms: CA_99  and  C_100 
REMARK       I    between atoms: C_100  and  N_109 
REMARK   43  A    between atoms: CB_102  and  CG_103 
REMARK       I    between atoms: CG_103  and  ND2_105 
REMARK   44  A    between atoms: N_109  and  CA_110 
REMARK   45  A    between atoms: CA_110  and  C_111 
REMARK   46  A    between atoms: CA_110  and  CB_113 
REMARK       I    between atoms: C_111  and  N_117 
REMARK   47  A    between atoms: CB_113  and  OG_114 
REMARK   48  A    between atoms: N_117  and  CA_118 
REMARK   49  A    between atoms: CA_118  and  C_119 
REMARK   50  A    between atoms: CA_118  and  CB_121 
REMARK       I    between atoms: C_119  and  N_126 
REMARK   51  A    between atoms: CB_121  and  CG_122 
REMARK   52  A    between atoms: N_126  and  CA_127 
REMARK   53  A    between atoms: CA_127  and  C_128 
REMARK   54  A    between atoms: CA_127  and  CB_130 
REMARK       I    between atoms: C_128  and  N_138 
REMARK   55  A    between atoms: CB_130  and  CG_131 
REMARK   56  A    between atoms: N_138  and  CA_139 
REMARK   57  A    between atoms: CA_139  and  C_140 
REMARK       I    between atoms: C_140  and  N_143 
REMARK   58  A    between atoms: N_143  and  CA_144 
REMARK   59  A    between atoms: CA_144  and  C_145 
REMARK   60  A    between atoms: CA_144  and  CB_147 
REMARK   61  A    between atoms: CB_147  and  CG_148 
REMARK   62  A    between atoms: CG_148  and  CD_149 
REMARK   63  A    between atoms: CD_149  and  NE_150 
REMARK       I    between atoms: NE_150  and  CZ_151 
REMARK       I    between atoms: CZ_151  and  NH1_152 
ROOT
ATOM      1  N   PHE     1      63.412  41.857  48.647  1.00  0.00    -0.057 N 
ATOM      2  H1  PHE     1      62.949  40.968  48.625  1.00 99.99     0.276 HD
ATOM      3  H2  PHE     1      64.389  41.709  48.680  1.00 99.99     0.276 HD
ATOM      4  H3  PHE     1      63.194  42.321  49.493  1.00 99.99     0.276 HD
ENDROOT
BRANCH   1   5
ATOM      5  CA  PHE     1      62.996  42.619  47.444  1.00  0.00     0.259 C 
BRANCH   5   6
ATOM      6  C   PHE     1      62.572  41.678  46.292  1.00  0.00     0.259 C 
ATOM      7  O   PHE     1      62.967  41.893  45.146  1.00  0.00    -0.271 OA
ATOM      8  N   ILE     2      61.809  40.626  46.596  1.00  0.00    -0.338 N 
ATOM      9  H   ILE     2      61.529  40.406  47.529  1.00 99.99     0.164 HD
BRANCH   8  10
ATOM     10  CA  ILE     2      61.295  39.705  45.559  1.00  0.00     0.159 C 
BRANCH  10  11
ATOM     11  CB  ILE     2      61.425  38.229  46.000  1.00  0.00     0.029 C 
ATOM     12  CG2 ILE     2      62.874  37.735  45.831  1.00  0.00     0.002 C 
BRANCH  11  13
ATOM     13  CG1 ILE     2      60.964  38.064  47.461  1.00  0.00     0.002 C 
ATOM     14  CD  ILE     2      60.802  36.611  47.932  1.00  0.00     0.000 C 
ENDBRANCH  11  13
ENDBRANCH  10  11
BRANCH  10  15
ATOM     15  C   ILE     2      59.849  40.108  45.223  1.00  0.00     0.251 C 
ATOM     16  O   ILE     2      59.430  41.225  45.519  1.00  0.00    -0.271 OA
ATOM     17  N   PHE     3      59.166  39.216  44.506  1.00  0.00    -0.337 N 
ATOM     18  H   PHE     3      59.569  38.342  44.236  1.00 99.99     0.164 HD
BRANCH  17  19
ATOM     19  CA  PHE     3      57.789  39.449  44.025  1.00  0.00     0.164 C 
BRANCH  19  20
ATOM     20  C   PHE     3      56.703  39.244  45.103  1.00  0.00     0.254 C 
ATOM     21  O   PHE     3      56.150  40.237  45.583  1.00  0.00    -0.270 OA
ATOM     22  N   PRO     4      56.587  38.007  45.626  1.00  0.00    -0.312 N 
ATOM     23  CD  PRO     4      57.653  36.979  45.598  1.00  0.00     0.105 C 
ATOM     24  CA  PRO     4      55.491  37.523  46.497  1.00  0.00     0.163 C 
ATOM     25  CG  PRO     4      57.136  35.818  46.451  1.00  0.00     0.027 C 
ATOM     26  CB  PRO     4      56.167  36.499  47.412  1.00  0.00     0.034 C 
BRANCH  24  27
ATOM     27  C   PRO     4      54.566  38.511  47.233  1.00  0.00     0.251 C 
ATOM     28  O   PRO     4      53.387  38.595  46.899  1.00  0.00    -0.271 OA
ATOM     29  N   LYS     5      55.073  39.195  48.262  1.00  0.00    -0.338 N 
ATOM     30  H   LYS     5      56.051  39.201  48.449  1.00 99.99     0.164 HD
BRANCH  29  31
ATOM     31  CA  LYS     5      54.253  40.025  49.175  1.00  0.00     0.159 C 
BRANCH  31  32
ATOM     32  C   LYS     5      54.935  41.331  49.621  1.00  0.00     0.251 C 
ATOM     33  N   LYS     6      55.810  41.181  50.621  1.00  0.00    -0.338 N 
ATOM     34  H   LYS     6      55.889  40.302  51.090  1.00 99.99     0.164 HD
ATOM     35  O   LYS     5      54.862  42.337  48.914  1.00  0.00    -0.271 OA
BRANCH  33  36
ATOM     36  CA  LYS     6      56.609  42.263  51.249  1.00  0.00     0.159 C 
BRANCH  36  37
ATOM     37  CB  LYS     6      56.219  42.328  52.737  1.00  0.00     0.032 C 
BRANCH  37  38
ATOM     38  CG  LYS     6      55.435  41.111  53.245  1.00  0.00     0.004 C 
BRANCH  38  39
ATOM     39  CD  LYS     6      56.114  40.473  54.461  1.00  0.00     0.032 C 
BRANCH  39  40
ATOM     40  CE  LYS     6      56.967  39.271  54.045  1.00  0.00     0.206 C 
BRANCH  40  41
ATOM     41  NZ  LYS     6      56.206  38.309  53.232  1.00  0.00    -0.064 N 
ATOM     42  HZ2 LYS     6      56.639  37.408  53.282  1.00 99.99     0.275 HD
ATOM     43  HZ1 LYS     6      56.193  38.613  52.280  1.00 99.99     0.275 HD
ATOM     44  HZ3 LYS     6      55.266  38.245  53.569  1.00 99.99     0.275 HD
ENDBRANCH  40  41
ENDBRANCH  39  40
ENDBRANCH  38  39
ENDBRANCH  37  38
ENDBRANCH  36  37
BRANCH  36  45
ATOM     45  C   LYS     6      58.133  42.079  51.085  1.00  0.00     0.251 C 
ATOM     46  O   LYS     6      58.693  42.299  50.012  1.00  0.00    -0.271 OA
ATOM     47  N   ASN     7      58.741  41.506  52.121  1.00  0.00    -0.337 N 
ATOM     48  H   ASN     7      58.273  41.420  53.000  1.00 99.99     0.164 HD
BRANCH  47  49
ATOM     49  CA  ASN     7      60.187  41.214  52.188  1.00  0.00     0.169 C 
BRANCH  49  50
ATOM     50  C   ASN     7      60.497  39.988  53.070  1.00  0.00     0.251 C 
ATOM     51  O   ASN     7      61.128  40.134  54.115  1.00  0.00    -0.271 OA
ATOM     52  N   ILE     8      60.321  38.796  52.495  1.00  0.00    -0.338 N 
ATOM     53  H   ILE     8      60.148  38.718  51.514  1.00 99.99     0.164 HD
BRANCH  52  54
ATOM     54  CA  ILE     8      60.516  37.500  53.186  1.00  0.00     0.159 C 
BRANCH  54  55
ATOM     55  C   ILE     8      61.921  36.916  52.921  1.00  0.00     0.251 C 
ATOM     56  O   ILE     8      62.427  36.179  53.767  1.00  0.00    -0.271 OA
ATOM     57  N   ILE     9      62.568  37.328  51.828  1.00  0.00    -0.338 N 
ATOM     58  H   ILE     9      62.147  37.926  51.142  1.00 99.99     0.164 HD
BRANCH  57  59
ATOM     59  CA  ILE     9      63.954  36.899  51.522  1.00  0.00     0.159 C 
BRANCH  59  60
ATOM     60  C   ILE     9      64.971  38.061  51.505  1.00  0.00     0.251 C 
ATOM     61  O   ILE     9      64.597  39.196  51.214  1.00  0.00    -0.271 OA
ATOM     62  N   ASN    10      66.255  37.749  51.651  1.00  0.00    -0.337 N 
ATOM     63  H   ASN    10      66.571  36.823  51.869  1.00 99.99     0.164 HD
BRANCH  62  64
ATOM     64  CA  ASN    10      67.309  38.774  51.525  1.00  0.00     0.169 C 
BRANCH  64  65
ATOM     65  CB  ASN    10      68.387  38.583  52.595  1.00  0.00     0.119 C 
BRANCH  65  66
ATOM     66  CG  ASN    10      69.039  37.194  52.503  1.00  0.00     0.230 C 
ATOM     67  ND2 ASN    10      70.350  37.175  52.449  1.00  0.00    -0.369 N 
ATOM     68 1HD2 ASN    10      70.779  36.277  52.391  1.00 99.99     0.159 HD
ATOM     69 2HD2 ASN    10      70.875  38.018  52.484  1.00 99.99     0.159 HD
ATOM     70  OD1 ASN    10      68.415  36.144  52.556  1.00  0.00    -0.273 OA
ENDBRANCH  65  66
ENDBRANCH  64  65
BRANCH  64  71
ATOM     71  C   ASN    10      67.873  38.875  50.097  1.00  0.00     0.251 C 
ATOM     72  O   ASN    10      68.930  39.478  49.911  1.00  0.00    -0.271 OA
ATOM     73  N   SER    11      67.043  38.539  49.107  1.00  0.00    -0.336 N 
ATOM     74  H   SER    11      66.157  38.099  49.284  1.00 99.99     0.164 HD
BRANCH  73  75
ATOM     75  CA  SER    11      67.385  38.647  47.668  1.00  0.00     0.189 C 
BRANCH  75  76
ATOM     76  C   SER    11      66.403  39.516  46.863  1.00  0.00     0.253 C 
ATOM     77  N   LEU    12      66.829  39.937  45.671  1.00  0.00    -0.337 N 
ATOM     78  H   LEU    12      67.779  39.799  45.378  1.00 99.99     0.164 HD
ATOM     79  O   SER    11      65.310  39.810  47.338  1.00  0.00    -0.270 OA
BRANCH  77  80
ATOM     80  CA  LEU    12      66.011  40.730  44.728  1.00  0.00     0.159 C 
BRANCH  80  81
ATOM     81  C   LEU    12      65.342  39.974  43.568  1.00  0.00     0.251 C 
ATOM     82  O   LEU    12      65.609  38.787  43.384  1.00  0.00    -0.271 OA
ATOM     83  N   PHE    13      64.366  40.614  42.927  1.00  0.00    -0.337 N 
ATOM     84  H   PHE    13      64.024  41.501  43.234  1.00 99.99     0.164 HD
BRANCH  83  85
ATOM     85  CA  PHE    13      63.618  39.997  41.816  1.00  0.00     0.164 C 
BRANCH  85  86
ATOM     86  C   PHE    13      63.293  40.975  40.671  1.00  0.00     0.251 C 
ATOM     87  O   PHE    13      62.395  41.800  40.822  1.00  0.00    -0.271 OA
ATOM     88  N   GLY    14      63.932  40.776  39.507  1.00  0.00    -0.336 N 
ATOM     89  H   GLY    14      64.497  39.963  39.312  1.00 99.99     0.164 HD
BRANCH  88  90
ATOM     90  CA  GLY    14      63.828  41.722  38.376  1.00  0.00     0.189 C 
BRANCH  90  91
ATOM     91  C   GLY    14      62.528  41.471  37.598  1.00  0.00     0.253 C 
ATOM     92  N   ARG    15      61.647  42.466  37.644  1.00  0.00    -0.336 N 
ATOM     93  H   ARG    15      61.893  43.359  38.017  1.00 99.99     0.164 HD
ATOM     94  O   GLY    14      62.324  40.413  37.012  1.00  0.00    -0.270 OA
BRANCH  92  95
ATOM     95  CA  ARG    15      60.288  42.379  37.055  1.00  0.00     0.168 C 
BRANCH  95  96
ATOM     96  C   ARG    15      60.276  42.925  35.619  1.00  0.00     0.206 C 
ATOM     97  O   ARG    15      60.034  42.135  34.682  1.00 99.99    -0.646 OA
ATOM     98  OXT ARG    15      60.510  44.150  35.514  1.00 99.99    -0.646 OA
ENDBRANCH  95  96
BRANCH  95  99
ATOM     99  CB  ARG    15      59.302  43.235  37.861  1.00  0.00     0.035 C 
BRANCH  99 100
ATOM    100  CG  ARG    15      59.905  43.996  39.042  1.00  0.00     0.027 C 
BRANCH 100 101
ATOM    101  CD  ARG    15      59.163  43.762  40.354  1.00  0.00     0.116 C 
BRANCH 101 102
ATOM    102  NE  ARG    15      60.192  43.647  41.398  1.00  0.00    -0.212 N 
ATOM    103  CZ  ARG    15      60.001  43.343  42.681  1.00  0.00     0.666 C 
ATOM    104  NH2 ARG    15      61.046  43.043  43.436  1.00  0.00    -0.235 N 
ATOM    105  NH1 ARG    15      58.790  43.153  43.187  1.00  0.00    -0.235 N 
ATOM    106 1HH2 ARG    15      60.910  42.803  44.394  1.00 99.99     0.174 HD
ATOM    107 2HH2 ARG    15      61.958  43.012  43.032  1.00 99.99     0.174 HD
ATOM    108 2HH1 ARG    15      58.002  43.208  42.577  1.00 99.99     0.174 HD
ATOM    109 1HH1 ARG    15      58.674  42.911  44.147  1.00 99.99     0.174 HD
ATOM    110  HE  ARG    15      61.117  43.888  41.104  1.00 99.99     0.178 HD
ENDBRANCH 101 102
ENDBRANCH 100 101
ENDBRANCH  99 100
ENDBRANCH  95  99
ENDBRANCH  92  95
ENDBRANCH  90  91
ENDBRANCH  88  90
ENDBRANCH  85  86
BRANCH  85 111
ATOM    111  CB  PHE    13      62.355  39.349  42.402  1.00  0.00     0.056 C 
BRANCH 111 112
ATOM    112  CG  PHE    13      62.051  37.964  41.830  1.00  0.00    -0.044 A 
ATOM    113  CD2 PHE    13      61.313  37.071  42.594  1.00  0.00     0.008 A 
ATOM    114  CE2 PHE    13      61.038  35.798  42.117  1.00  0.00     0.001 A 
ATOM    115  CZ  PHE    13      61.500  35.414  40.865  1.00  0.00     0.000 A 
ATOM    116  CE1 PHE    13      62.237  36.307  40.094  1.00  0.00     0.001 A 
ATOM    117  CD1 PHE    13      62.520  37.581  40.578  1.00  0.00     0.008 A 
ENDBRANCH 111 112
ENDBRANCH  85 111
ENDBRANCH  83  85
ENDBRANCH  80  81
BRANCH  80 118
ATOM    118  CB  LEU    12      66.841  41.873  44.144  1.00  0.00     0.032 C 
BRANCH 118 119
ATOM    119  CG  LEU    12      68.163  42.102  44.877  1.00  0.00     0.002 C 
ATOM    120  CD2 LEU    12      68.187  43.441  45.623  1.00  0.00     0.000 C 
ATOM    121  CD1 LEU    12      69.271  42.095  43.834  1.00  0.00     0.000 C 
ENDBRANCH 118 119
ENDBRANCH  80 118
ENDBRANCH  77  80
ENDBRANCH  75  76
BRANCH  75 122
ATOM    122  CB  SER    11      67.432  37.261  47.014  1.00  0.00     0.169 C 
BRANCH 122 123
ATOM    123  OG  SER    11      66.468  37.163  45.961  1.00  0.00    -0.380 OA
ATOM    124  HG  SER    11      65.767  36.501  46.223  1.00 99.99     0.211 HD
ENDBRANCH 122 123
ENDBRANCH  75 122
ENDBRANCH  73  75
ENDBRANCH  64  71
ENDBRANCH  62  64
ENDBRANCH  59  60
BRANCH  59 125
ATOM    125  CB  ILE     9      64.035  35.965  50.285  1.00  0.00     0.029 C 
ATOM    126  CG2 ILE     9      64.337  36.714  48.983  1.00  0.00     0.002 C 
BRANCH 125 127
ATOM    127  CG1 ILE     9      65.037  34.807  50.436  1.00  0.00     0.002 C 
ATOM    128  CD  ILE     9      65.226  34.304  51.872  1.00  0.00     0.000 C 
ENDBRANCH 125 127
ENDBRANCH  59 125
ENDBRANCH  57  59
ENDBRANCH  54  55
BRANCH  54 129
ATOM    129  CB  ILE     8      59.369  36.521  52.842  1.00  0.00     0.029 C 
ATOM    130  CG2 ILE     8      59.826  35.456  51.829  1.00  0.00     0.002 C 
BRANCH 129 131
ATOM    131  CG1 ILE     8      58.851  35.845  54.127  1.00  0.00     0.002 C 
ATOM    132  CD  ILE     8      59.121  36.616  55.427  1.00  0.00     0.000 C 
ENDBRANCH 129 131
ENDBRANCH  54 129
ENDBRANCH  52  54
ENDBRANCH  49  50
BRANCH  49 133
ATOM    133  CB  ASN     7      60.919  42.464  52.705  1.00  0.00     0.119 C 
BRANCH 133 134
ATOM    134  CG  ASN     7      62.304  42.709  52.077  1.00  0.00     0.230 C 
ATOM    135  ND2 ASN     7      63.175  41.734  52.184  1.00  0.00    -0.369 N 
ATOM    136 1HD2 ASN     7      64.071  41.890  51.776  1.00 99.99     0.159 HD
ATOM    137 2HD2 ASN     7      62.953  40.888  52.661  1.00 99.99     0.159 HD
ATOM    138  OD1 ASN     7      62.661  43.788  51.622  1.00  0.00    -0.273 OA
ENDBRANCH 133 134
ENDBRANCH  49 133
ENDBRANCH  47  49
ENDBRANCH  36  45
ENDBRANCH  33  36
ENDBRANCH  31  32
BRANCH  31 139
ATOM    139  CB  LYS     5      53.839  39.211  50.409  1.00  0.00     0.032 C 
BRANCH 139 140
ATOM    140  CG  LYS     5      52.361  39.386  50.773  1.00  0.00     0.004 C 
BRANCH 140 141
ATOM    141  CD  LYS     5      51.630  38.041  50.794  1.00  0.00     0.032 C 
BRANCH 141 142
ATOM    142  CE  LYS     5      50.254  38.154  50.132  1.00  0.00     0.206 C 
BRANCH 142 143
ATOM    143  NZ  LYS     5      50.264  39.101  49.006  1.00  0.00    -0.064 N 
ATOM    144  HZ3 LYS     5      51.159  39.088  48.558  1.00 99.99     0.275 HD
ATOM    145  HZ1 LYS     5      49.563  38.835  48.343  1.00 99.99     0.275 HD
ATOM    146  HZ2 LYS     5      50.068  40.025  49.336  1.00 99.99     0.275 HD
ENDBRANCH 142 143
ENDBRANCH 141 142
ENDBRANCH 140 141
ENDBRANCH 139 140
ENDBRANCH  31 139
ENDBRANCH  29  31
ENDBRANCH  24  27
ENDBRANCH  19  20
BRANCH  19 147
ATOM    147  CB  PHE     3      57.494  38.553  42.813  1.00  0.00     0.056 C 
BRANCH 147 148
ATOM    148  CG  PHE     3      58.307  38.818  41.540  1.00  0.00    -0.044 A 
ATOM    149  CD2 PHE     3      58.339  37.797  40.603  1.00  0.00     0.008 A 
ATOM    150  CE2 PHE     3      58.976  37.964  39.382  1.00  0.00     0.001 A 
ATOM    151  CZ  PHE     3      59.580  39.175  39.079  1.00  0.00     0.000 A 
ATOM    152  CE1 PHE     3      59.551  40.207  40.007  1.00  0.00     0.001 A 
ATOM    153  CD1 PHE     3      58.914  40.036  41.230  1.00  0.00     0.008 A 
ENDBRANCH 147 148
ENDBRANCH  19 147
ENDBRANCH  17  19
ENDBRANCH  10  15
ENDBRANCH   8  10
ENDBRANCH   5   6
BRANCH   5 154
ATOM    154  CB  PHE     1      64.135  43.521  46.941  1.00  0.00     0.064 C 
BRANCH 154 155
ATOM    155  CG  PHE     1      64.601  44.546  47.975  1.00  0.00    -0.044 A 
ATOM    156  CD2 PHE     1      63.675  45.360  48.620  1.00  0.00     0.008 A 
ATOM    157  CE2 PHE     1      64.086  46.204  49.645  1.00  0.00     0.001 A 
ATOM    158  CZ  PHE     1      65.424  46.238  50.022  1.00  0.00     0.000 A 
ATOM    159  CE1 PHE     1      66.351  45.438  49.365  1.00  0.00     0.001 A 
ATOM    160  CD1 PHE     1      65.944  44.600  48.335  1.00  0.00     0.008 A 
ENDBRANCH 154 155
ENDBRANCH   5 154
ENDBRANCH   1   5
TORSDOF 63
ENDMDL
MODEL 2
REMARK VINA RESULT:      -3.3      3.534     11.373
REMARK WARNING: 32 MAX_TORS EXCEEDED!!!
REMARK  63 active torsions:
REMARK  status: ('A' for Active; 'I' for Inactive)
REMARK    1  A    between atoms: N_1  and  CA_2 
REMARK    2  A    between atoms: CA_2  and  C_3 
REMARK    3  A    between atoms: CA_2  and  CB_5 
REMARK       I    between atoms: C_3  and  N_15 
REMARK    4  A    between atoms: CB_5  and  CG_6 
REMARK    5  A    between atoms: N_15  and  CA_16 
REMARK    6  A    between atoms: CA_16  and  CB_19 
REMARK    7  A    between atoms: CA_16  and  C_17 
REMARK       I    between atoms: C_17  and  N_24 
REMARK    8  A    between atoms: CB_19  and  CG1_20 
REMARK    9  A    between atoms: N_24  and  CA_25 
REMARK   10  A    between atoms: CA_25  and  C_26 
REMARK   11  A    between atoms: CA_25  and  CB_28 
REMARK       I    between atoms: C_26  and  N_36 
REMARK   12  A    between atoms: CB_28  and  CG_29 
REMARK   13  A    between atoms: CA_37  and  C_38 
REMARK       I    between atoms: C_38  and  N_43 
REMARK   14  A    between atoms: N_43  and  CA_44 
REMARK   15  A    between atoms: CA_44  and  C_45 
REMARK   16  A    between atoms: CA_44  and  CB_47 
REMARK       I    between atoms: C_45  and  N_56 
REMARK   17  A    between atoms: CB_47  and  CG_48 
REMARK   18  A    between atoms: CG_48  and  CD_49 
REMARK   19  A    between atoms: CD_49  and  CE_50 
REMARK   20  A    between atoms: CE_50  and  NZ_51 
REMARK   21  A    between atoms: N_56  and  CA_57 
REMARK   22  A    between atoms: CA_57  and  CB_60 
REMARK   23  A    between atoms: CA_57  and  C_58 
REMARK       I    between atoms: C_58  and  N_69 
REMARK   24  A    between atoms: CB_60  and  CG_61 
REMARK   25  A    between atoms: CG_61  and  CD_62 
REMARK   26  A    between atoms: CD_62  and  CE_63 
REMARK   27  A    between atoms: CE_63  and  NZ_64 
REMARK   28  A    between atoms: N_69  and  CA_70 
REMARK   29  A    between atoms: CA_70  and  C_71 
REMARK   30  A    between atoms: CA_70  and  CB_73 
REMARK       I    between atoms: C_71  and  N_80 
REMARK   31  A    between atoms: CB_73  and  CG_74 
REMARK       I    between atoms: CG_74  and  ND2_76 
REMARK   32  A    between atoms: N_80  and  CA_81 
REMARK   33  A    between atoms: CA_81  and  C_82 
REMARK   34  A    between atoms: CA_81  and  CB_84 
REMARK       I    between atoms: C_82  and  N_89 
REMARK   35  A    between atoms: CB_84  and  CG1_85 
REMARK   36  A    between atoms: N_89  and  CA_90 
REMARK   37  A    between atoms: CA_90  and  C_91 
REMARK   38  A    between atoms: CA_90  and  CB_93 
REMARK       I    between atoms: C_91  and  N_98 
REMARK   39  A    between atoms: CB_93  and  CG1_94 
REMARK   40  A    between atoms: N_98  and  CA_99 
REMARK   41  A    between atoms: CA_99  and  CB_102 
REMARK   42  A    between atoms: CA_99  and  C_100 
REMARK       I    between atoms: C_100  and  N_109 
REMARK   43  A    between atoms: CB_102  and  CG_103 
REMARK       I    between atoms: CG_103  and  ND2_105 
REMARK   44  A    between atoms: N_109  and  CA_110 
REMARK   45  A    between atoms: CA_110  and  C_111 
REMARK   46  A    between atoms: CA_110  and  CB_113 
REMARK       I    between atoms: C_111  and  N_117 
REMARK   47  A    between atoms: CB_113  and  OG_114 
REMARK   48  A    between atoms: N_117  and  CA_118 
REMARK   49  A    between atoms: CA_118  and  C_119 
REMARK   50  A    between atoms: CA_118  and  CB_121 
REMARK       I    between atoms: C_119  and  N_126 
REMARK   51  A    between atoms: CB_121  and  CG_122 
REMARK   52  A    between atoms: N_126  and  CA_127 
REMARK   53  A    between atoms: CA_127  and  C_128 
REMARK   54  A    between atoms: CA_127  and  CB_130 
REMARK       I    between atoms: C_128  and  N_138 
REMARK   55  A    between atoms: CB_130  and  CG_131 
REMARK   56  A    between atoms: N_138  and  CA_139 
REMARK   57  A    between atoms: CA_139  and  C_140 
REMARK       I    between atoms: C_140  and  N_143 
REMARK   58  A    between atoms: N_143  and  CA_144 
REMARK   59  A    between atoms: CA_144  and  C_145 
REMARK   60  A    between atoms: CA_144  and  CB_147 
REMARK   61  A    between atoms: CB_147  and  CG_148 
REMARK   62  A    between atoms: CG_148  and  CD_149 
REMARK   63  A    between atoms: CD_149  and  NE_150 
REMARK       I    between atoms: NE_150  and  CZ_151 
REMARK       I    between atoms: CZ_151  and  NH1_152 
ROOT
ATOM      1  N   PHE     1      60.866  36.844  44.836  1.00  0.00    -0.057 N 
ATOM      2  H1  PHE     1      61.069  36.080  44.219  1.00 99.99     0.276 HD
ATOM      3  H2  PHE     1      61.463  37.601  44.615  1.00 99.99     0.276 HD
ATOM      4  H3  PHE     1      61.102  36.592  45.763  1.00 99.99     0.276 HD
ENDROOT
BRANCH   1   5
ATOM      5  CA  PHE     1      59.431  37.190  44.677  1.00  0.00     0.259 C 
BRANCH   5   6
ATOM      6  C   PHE     1      59.176  37.972  43.366  1.00  0.00     0.259 C 
ATOM      7  O   PHE     1      59.527  39.147  43.274  1.00  0.00    -0.271 OA
ATOM      8  N   ILE     2      58.604  37.317  42.353  1.00  0.00    -0.338 N 
ATOM      9  H   ILE     2      58.367  36.348  42.394  1.00 99.99     0.164 HD
BRANCH   8  10
ATOM     10  CA  ILE     2      58.257  37.990  41.083  1.00  0.00     0.159 C 
BRANCH  10  11
ATOM     11  CB  ILE     2      56.929  38.773  41.203  1.00  0.00     0.029 C 
ATOM     12  CG2 ILE     2      56.439  39.231  39.816  1.00  0.00     0.002 C 
BRANCH  11  13
ATOM     13  CG1 ILE     2      55.858  37.909  41.896  1.00  0.00     0.002 C 
ATOM     14  CD  ILE     2      54.459  37.976  41.267  1.00  0.00     0.000 C 
ENDBRANCH  11  13
ENDBRANCH  10  11
BRANCH  10  15
ATOM     15  C   ILE     2      59.442  38.877  40.662  1.00  0.00     0.251 C 
ATOM     16  O   ILE     2      60.469  38.371  40.213  1.00  0.00    -0.271 OA
ATOM     17  N   PHE     3      59.212  40.189  40.715  1.00  0.00    -0.337 N 
ATOM     18  H   PHE     3      58.338  40.555  41.032  1.00 99.99     0.164 HD
BRANCH  17  19
ATOM     19  CA  PHE     3      60.200  41.200  40.285  1.00  0.00     0.164 C 
BRANCH  19  20
ATOM     20  C   PHE     3      61.220  41.588  41.376  1.00  0.00     0.254 C 
ATOM     21  O   PHE     3      60.908  42.455  42.197  1.00  0.00    -0.270 OA
ATOM     22  N   PRO     4      62.478  41.130  41.227  1.00  0.00    -0.312 N 
ATOM     23  CD  PRO     4      63.065  40.685  39.942  1.00  0.00     0.105 C 
ATOM     24  CA  PRO     4      63.557  41.185  42.240  1.00  0.00     0.163 C 
ATOM     25  CG  PRO     4      64.545  40.420  40.226  1.00  0.00     0.027 C 
ATOM     26  CB  PRO     4      64.838  41.331  41.414  1.00  0.00     0.034 C 
BRANCH  24  27
ATOM     27  C   PRO     4      63.471  42.145  43.442  1.00  0.00     0.251 C 
ATOM     28  O   PRO     4      64.024  43.240  43.379  1.00  0.00    -0.271 OA
ATOM     29  N   LYS     5      62.732  41.771  44.489  1.00  0.00    -0.338 N 
ATOM     30  H   LYS     5      62.385  40.840  44.573  1.00 99.99     0.164 HD
BRANCH  29  31
ATOM     31  CA  LYS     5      62.403  42.669  45.621  1.00  0.00     0.159 C 
BRANCH  31  32
ATOM     32  C   LYS     5      63.457  42.677  46.744  1.00  0.00     0.251 C 
ATOM     33  N   LYS     6      63.040  42.133  47.893  1.00  0.00    -0.338 N 
ATOM     34  H   LYS     6      62.082  41.871  48.005  1.00 99.99     0.164 HD
ATOM     35  O   LYS     5      64.636  42.914  46.481  1.00  0.00    -0.271 OA
BRANCH  33  36
ATOM     36  CA  LYS     6      63.840  42.007  49.137  1.00  0.00     0.159 C 
BRANCH  36  37
ATOM     37  CB  LYS     6      63.041  42.672  50.274  1.00  0.00     0.032 C 
BRANCH  37  38
ATOM     38  CG  LYS     6      63.367  44.153  50.501  1.00  0.00     0.004 C 
BRANCH  38  39
ATOM     39  CD  LYS     6      62.511  45.060  49.611  1.00  0.00     0.032 C 
BRANCH  39  40
ATOM     40  CE  LYS     6      63.221  46.389  49.337  1.00  0.00     0.206 C 
BRANCH  40  41
ATOM     41  NZ  LYS     6      64.556  46.190  48.750  1.00  0.00    -0.064 N 
ATOM     42  HZ2 LYS     6      64.793  46.976  48.177  1.00 99.99     0.275 HD
ATOM     43  HZ1 LYS     6      64.552  45.364  48.186  1.00 99.99     0.275 HD
ATOM     44  HZ3 LYS     6      65.237  46.090  49.476  1.00 99.99     0.275 HD
ENDBRANCH  40  41
ENDBRANCH  39  40
ENDBRANCH  38  39
ENDBRANCH  37  38
ENDBRANCH  36  37
BRANCH  36  45
ATOM     45  C   LYS     6      64.199  40.548  49.493  1.00  0.00     0.251 C 
ATOM     46  O   LYS     6      63.367  39.647  49.415  1.00  0.00    -0.271 OA
ATOM     47  N   ASN     7      65.398  40.388  50.047  1.00  0.00    -0.337 N 
ATOM     48  H   ASN     7      66.074  41.124  50.018  1.00 99.99     0.164 HD
BRANCH  47  49
ATOM     49  CA  ASN     7      65.953  39.091  50.486  1.00  0.00     0.169 C 
BRANCH  49  50
ATOM     50  C   ASN     7      65.523  38.724  51.920  1.00  0.00     0.251 C 
ATOM     51  O   ASN     7      64.931  37.666  52.125  1.00  0.00    -0.271 OA
ATOM     52  N   ILE     8      65.555  39.717  52.811  1.00  0.00    -0.338 N 
ATOM     53  H   ILE     8      65.700  40.662  52.524  1.00 99.99     0.164 HD
BRANCH  52  54
ATOM     54  CA  ILE     8      65.229  39.559  54.247  1.00  0.00     0.159 C 
BRANCH  54  55
ATOM     55  C   ILE     8      63.703  39.550  54.490  1.00  0.00     0.251 C 
ATOM     56  O   ILE     8      63.101  40.623  54.521  1.00  0.00    -0.271 OA
ATOM     57  N   ILE     9      63.124  38.379  54.763  1.00  0.00    -0.338 N 
ATOM     58  H   ILE     9      63.622  37.509  54.732  1.00 99.99     0.164 HD
BRANCH  57  59
ATOM     59  CA  ILE     9      61.683  38.267  55.097  1.00  0.00     0.159 C 
BRANCH  59  60
ATOM     60  C   ILE     9      60.773  38.119  53.859  1.00  0.00     0.251 C 
ATOM     61  O   ILE     9      60.766  38.996  52.997  1.00  0.00    -0.271 OA
ATOM     62  N   ASN    10      59.904  37.113  53.859  1.00  0.00    -0.337 N 
ATOM     63  H   ASN    10      59.889  36.405  54.567  1.00 99.99     0.164 HD
BRANCH  62  64
ATOM     64  CA  ASN    10      58.908  36.963  52.780  1.00  0.00     0.169 C 
BRANCH  64  65
ATOM     65  CB  ASN    10      59.112  35.645  52.029  1.00  0.00     0.119 C 
BRANCH  65  66
ATOM     66  CG  ASN    10      60.381  35.674  51.162  1.00  0.00     0.230 C 
ATOM     67  ND2 ASN    10      61.324  34.824  51.492  1.00  0.00    -0.369 N 
ATOM     68 1HD2 ASN    10      62.149  34.837  50.932  1.00 99.99     0.159 HD
ATOM     69 2HD2 ASN    10      61.201  34.194  52.249  1.00 99.99     0.159 HD
ATOM     70  OD1 ASN    10      60.510  36.374  50.168  1.00  0.00    -0.273 OA
ENDBRANCH  65  66
ENDBRANCH  64  65
BRANCH  64  71
ATOM     71  C   ASN    10      57.465  37.176  53.267  1.00  0.00     0.251 C 
ATOM     72  O   ASN    10      56.577  36.429  52.856  1.00  0.00    -0.271 OA
ATOM     73  N   SER    11      57.215  38.328  53.892  1.00  0.00    -0.336 N 
ATOM     74  H   SER    11      57.952  38.953  54.168  1.00 99.99     0.164 HD
BRANCH  73  75
ATOM     75  CA  SER    11      55.870  38.739  54.362  1.00  0.00     0.189 C 
BRANCH  75  76
ATOM     76  C   SER    11      55.517  40.199  54.026  1.00  0.00     0.253 C 
ATOM     77  N   LEU    12      56.180  40.746  53.006  1.00  0.00    -0.337 N 
ATOM     78  H   LEU    12      56.951  40.272  52.571  1.00 99.99     0.164 HD
ATOM     79  O   SER    11      54.689  40.803  54.701  1.00  0.00    -0.270 OA
BRANCH  77  80
ATOM     80  CA  LEU    12      55.941  42.113  52.495  1.00  0.00     0.159 C 
BRANCH  80  81
ATOM     81  C   LEU    12      55.053  42.253  51.247  1.00  0.00     0.251 C 
ATOM     82  O   LEU    12      55.128  43.272  50.562  1.00  0.00    -0.271 OA
ATOM     83  N   PHE    13      54.372  41.171  50.879  1.00  0.00    -0.337 N 
ATOM     84  H   PHE    13      54.494  40.289  51.333  1.00 99.99     0.164 HD
BRANCH  83  85
ATOM     85  CA  PHE    13      53.507  41.154  49.685  1.00  0.00     0.164 C 
BRANCH  85  86
ATOM     86  C   PHE    13      52.229  40.311  49.858  1.00  0.00     0.251 C 
ATOM     87  O   PHE    13      51.739  39.754  48.878  1.00  0.00    -0.271 OA
ATOM     88  N   GLY    14      51.643  40.343  51.065  1.00  0.00    -0.336 N 
ATOM     89  H   GLY    14      51.915  40.977  51.802  1.00 99.99     0.164 HD
BRANCH  88  90
ATOM     90  CA  GLY    14      50.502  39.471  51.415  1.00  0.00     0.189 C 
BRANCH  90  91
ATOM     91  C   GLY    14      50.399  39.324  52.939  1.00  0.00     0.253 C 
ATOM     92  N   ARG    15      49.194  39.564  53.447  1.00  0.00    -0.336 N 
ATOM     93  H   ARG    15      48.395  39.667  52.856  1.00 99.99     0.164 HD
ATOM     94  O   GLY    14      51.377  39.037  53.624  1.00  0.00    -0.270 OA
BRANCH  92  95
ATOM     95  CA  ARG    15      48.912  39.586  54.903  1.00  0.00     0.168 C 
BRANCH  95  96
ATOM     96  C   ARG    15      48.469  38.200  55.398  1.00  0.00     0.206 C 
ATOM     97  O   ARG    15      47.689  37.532  54.686  1.00 99.99    -0.646 OA
ATOM     98  OXT ARG    15      48.949  37.852  56.500  1.00 99.99    -0.646 OA
ENDBRANCH  95  96
BRANCH  95  99
ATOM     99  CB  ARG    15      47.759  40.552  55.208  1.00  0.00     0.035 C 
BRANCH  99 100
ATOM    100  CG  ARG    15      47.896  41.348  56.507  1.00  0.00     0.027 C 
BRANCH 100 101
ATOM    101  CD  ARG    15      48.159  42.833  56.280  1.00  0.00     0.116 C 
BRANCH 101 102
ATOM    102  NE  ARG    15      47.372  43.553  57.293  1.00  0.00    -0.212 N 
ATOM    103  CZ  ARG    15      46.934  44.809  57.223  1.00  0.00     0.666 C 
ATOM    104  NH2 ARG    15      46.039  45.230  58.103  1.00  0.00    -0.235 N 
ATOM    105  NH1 ARG    15      47.224  45.600  56.199  1.00  0.00    -0.235 N 
ATOM    106 1HH2 ARG    15      45.698  46.166  58.049  1.00 99.99     0.174 HD
ATOM    107 2HH2 ARG    15      45.675  44.598  58.784  1.00 99.99     0.174 HD
ATOM    108 2HH1 ARG    15      47.758  45.228  55.443  1.00 99.99     0.174 HD
ATOM    109 1HH1 ARG    15      46.871  46.532  56.162  1.00 99.99     0.174 HD
ATOM    110  HE  ARG    15      47.215  43.045  58.141  1.00 99.99     0.178 HD
ENDBRANCH 101 102
ENDBRANCH 100 101
ENDBRANCH  99 100
ENDBRANCH  95  99
ENDBRANCH  92  95
ENDBRANCH  90  91
ENDBRANCH  88  90
ENDBRANCH  85  86
BRANCH  85 111
ATOM    111  CB  PHE    13      54.356  40.683  48.496  1.00  0.00     0.056 C 
BRANCH 111 112
ATOM    112  CG  PHE    13      55.351  39.577  48.847  1.00  0.00    -0.044 A 
ATOM    113  CD2 PHE    13      54.893  38.272  48.955  1.00  0.00     0.008 A 
ATOM    114  CE2 PHE    13      55.763  37.247  49.295  1.00  0.00     0.001 A 
ATOM    115  CZ  PHE    13      57.103  37.526  49.526  1.00  0.00     0.000 A 
ATOM    116  CE1 PHE    13      57.568  38.832  49.415  1.00  0.00     0.001 A 
ATOM    117  CD1 PHE    13      56.692  39.861  49.084  1.00  0.00     0.008 A 
ENDBRANCH 111 112
ENDBRANCH  85 111
ENDBRANCH  83  85
ENDBRANCH  80  81
BRANCH  80 118
ATOM    118  CB  LEU    12      57.272  42.813  52.220  1.00  0.00     0.032 C 
BRANCH 118 119
ATOM    119  CG  LEU    12      58.453  41.850  52.104  1.00  0.00     0.002 C 
ATOM    120  CD2 LEU    12      59.471  42.042  53.234  1.00  0.00     0.000 C 
ATOM    121  CD1 LEU    12      59.136  42.123  50.771  1.00  0.00     0.000 C 
ENDBRANCH 118 119
ENDBRANCH  80 118
ENDBRANCH  77  80
ENDBRANCH  75  76
BRANCH  75 122
ATOM    122  CB  SER    11      55.746  38.564  55.880  1.00  0.00     0.169 C 
BRANCH 122 123
ATOM    123  OG  SER    11      56.305  39.686  56.570  1.00  0.00    -0.380 OA
ATOM    124  HG  SER    11      56.232  39.531  57.554  1.00 99.99     0.211 HD
ENDBRANCH 122 123
ENDBRANCH  75 122
ENDBRANCH  73  75
ENDBRANCH  64  71
ENDBRANCH  62  64
ENDBRANCH  59  60
BRANCH  59 125
ATOM    125  CB  ILE     9      61.215  39.348  56.106  1.00  0.00     0.029 C 
ATOM    126  CG2 ILE     9      59.692  39.403  56.266  1.00  0.00     0.002 C 
BRANCH 125 127
ATOM    127  CG1 ILE     9      61.858  39.229  57.500  1.00  0.00     0.002 C 
ATOM    128  CD  ILE     9      62.152  40.567  58.187  1.00  0.00     0.000 C 
ENDBRANCH 125 127
ENDBRANCH  59 125
ENDBRANCH  57  59
ENDBRANCH  54  55
BRANCH  54 129
ATOM    129  CB  ILE     8      65.979  40.611  55.096  1.00  0.00     0.029 C 
ATOM    130  CG2 ILE     8      65.910  40.274  56.596  1.00  0.00     0.002 C 
BRANCH 129 131
ATOM    131  CG1 ILE     8      67.448  40.707  54.639  1.00  0.00     0.002 C 
ATOM    132  CD  ILE     8      68.368  39.591  55.155  1.00  0.00     0.000 C 
ENDBRANCH 129 131
ENDBRANCH  54 129
ENDBRANCH  52  54
ENDBRANCH  49  50
BRANCH  49 133
ATOM    133  CB  ASN     7      67.485  39.146  50.366  1.00  0.00     0.119 C 
BRANCH 133 134
ATOM    134  CG  ASN     7      68.013  39.419  48.945  1.00  0.00     0.230 C 
ATOM    135  ND2 ASN     7      68.223  38.369  48.187  1.00  0.00    -0.369 N 
ATOM    136 1HD2 ASN     7      68.563  38.544  47.266  1.00 99.99     0.159 HD
ATOM    137 2HD2 ASN     7      68.062  37.445  48.523  1.00 99.99     0.159 HD
ATOM    138  OD1 ASN     7      68.367  40.524  48.554  1.00  0.00    -0.273 OA
ENDBRANCH 133 134
ENDBRANCH  49 133
ENDBRANCH  47  49
ENDBRANCH  36  45
ENDBRANCH  33  36
ENDBRANCH  31  32
BRANCH  31 139
ATOM    139  CB  LYS     5      61.029  42.311  46.204  1.00  0.00     0.032 C 
BRANCH 139 140
ATOM    140  CG  LYS     5      60.130  43.536  46.412  1.00  0.00     0.004 C 
BRANCH 140 141
ATOM    141  CD  LYS     5      58.705  43.270  45.919  1.00  0.00     0.032 C 
BRANCH 141 142
ATOM    142  CE  LYS     5      58.478  43.892  44.539  1.00  0.00     0.206 C 
BRANCH 142 143
ATOM    143  NZ  LYS     5      58.394  42.869  43.483  1.00  0.00    -0.064 N 
ATOM    144  HZ3 LYS     5      57.599  42.283  43.639  1.00 99.99     0.275 HD
ATOM    145  HZ1 LYS     5      58.301  43.318  42.594  1.00 99.99     0.275 HD
ATOM    146  HZ2 LYS     5      59.225  42.313  43.482  1.00 99.99     0.275 HD
ENDBRANCH 142 143
ENDBRANCH 141 142
ENDBRANCH 140 141
ENDBRANCH 139 140
ENDBRANCH  31 139
ENDBRANCH  29  31
ENDBRANCH  24  27
ENDBRANCH  19  20
BRANCH  19 147
ATOM    147  CB  PHE     3      59.480  42.457  39.775  1.00  0.00     0.056 C 
BRANCH 147 148
ATOM    148  CG  PHE     3      59.718  42.849  38.312  1.00  0.00    -0.044 A 
ATOM    149  CD2 PHE     3      58.703  42.544  37.417  1.00  0.00     0.008 A 
ATOM    150  CE2 PHE     3      58.781  42.929  36.087  1.00  0.00     0.001 A 
ATOM    151  CZ  PHE     3      59.882  43.643  35.639  1.00  0.00     0.000 A 
ATOM    152  CE1 PHE     3      60.903  43.958  36.526  1.00  0.00     0.001 A 
ATOM    153  CD1 PHE     3      60.823  43.570  37.858  1.00  0.00     0.008 A 
ENDBRANCH 147 148
ENDBRANCH  19 147
ENDBRANCH  17  19
ENDBRANCH  10  15
ENDBRANCH   8  10
ENDBRANCH   5   6
BRANCH   5 154
ATOM    154  CB  PHE     1      58.937  38.044  45.856  1.00  0.00     0.064 C 
BRANCH 154 155
ATOM    155  CG  PHE     1      57.510  38.563  45.675  1.00  0.00    -0.044 A 
ATOM    156  CD2 PHE     1      57.281  39.914  45.441  1.00  0.00     0.008 A 
ATOM    157  CE2 PHE     1      55.997  40.363  45.157  1.00  0.00     0.001 A 
ATOM    158  CZ  PHE     1      54.940  39.460  45.111  1.00  0.00     0.000 A 
ATOM    159  CE1 PHE     1      55.167  38.113  45.364  1.00  0.00     0.001 A 
ATOM    160  CD1 PHE     1      56.448  37.664  45.657  1.00  0.00     0.008 A 
ENDBRANCH 154 155
ENDBRANCH   5 154
ENDBRANCH   1   5
TORSDOF 63
ENDMDL
MODEL 3
REMARK VINA RESULT:      -3.3      3.248     11.517
REMARK WARNING: 32 MAX_TORS EXCEEDED!!!
REMARK  63 active torsions:
REMARK  status: ('A' for Active; 'I' for Inactive)
REMARK    1  A    between atoms: N_1  and  CA_2 
REMARK    2  A    between atoms: CA_2  and  C_3 
REMARK    3  A    between atoms: CA_2  and  CB_5 
REMARK       I    between atoms: C_3  and  N_15 
REMARK    4  A    between atoms: CB_5  and  CG_6 
REMARK    5  A    between atoms: N_15  and  CA_16 
REMARK    6  A    between atoms: CA_16  and  CB_19 
REMARK    7  A    between atoms: CA_16  and  C_17 
REMARK       I    between atoms: C_17  and  N_24 
REMARK    8  A    between atoms: CB_19  and  CG1_20 
REMARK    9  A    between atoms: N_24  and  CA_25 
REMARK   10  A    between atoms: CA_25  and  C_26 
REMARK   11  A    between atoms: CA_25  and  CB_28 
REMARK       I    between atoms: C_26  and  N_36 
REMARK   12  A    between atoms: CB_28  and  CG_29 
REMARK   13  A    between atoms: CA_37  and  C_38 
REMARK       I    between atoms: C_38  and  N_43 
REMARK   14  A    between atoms: N_43  and  CA_44 
REMARK   15  A    between atoms: CA_44  and  C_45 
REMARK   16  A    between atoms: CA_44  and  CB_47 
REMARK       I    between atoms: C_45  and  N_56 
REMARK   17  A    between atoms: CB_47  and  CG_48 
REMARK   18  A    between atoms: CG_48  and  CD_49 
REMARK   19  A    between atoms: CD_49  and  CE_50 
REMARK   20  A    between atoms: CE_50  and  NZ_51 
REMARK   21  A    between atoms: N_56  and  CA_57 
REMARK   22  A    between atoms: CA_57  and  CB_60 
REMARK   23  A    between atoms: CA_57  and  C_58 
REMARK       I    between atoms: C_58  and  N_69 
REMARK   24  A    between atoms: CB_60  and  CG_61 
REMARK   25  A    between atoms: CG_61  and  CD_62 
REMARK   26  A    between atoms: CD_62  and  CE_63 
REMARK   27  A    between atoms: CE_63  and  NZ_64 
REMARK   28  A    between atoms: N_69  and  CA_70 
REMARK   29  A    between atoms: CA_70  and  C_71 
REMARK   30  A    between atoms: CA_70  and  CB_73 
REMARK       I    between atoms: C_71  and  N_80 
REMARK   31  A    between atoms: CB_73  and  CG_74 
REMARK       I    between atoms: CG_74  and  ND2_76 
REMARK   32  A    between atoms: N_80  and  CA_81 
REMARK   33  A    between atoms: CA_81  and  C_82 
REMARK   34  A    between atoms: CA_81  and  CB_84 
REMARK       I    between atoms: C_82  and  N_89 
REMARK   35  A    between atoms: CB_84  and  CG1_85 
REMARK   36  A    between atoms: N_89  and  CA_90 
REMARK   37  A    between atoms: CA_90  and  C_91 
REMARK   38  A    between atoms: CA_90  and  CB_93 
REMARK       I    between atoms: C_91  and  N_98 
REMARK   39  A    between atoms: CB_93  and  CG1_94 
REMARK   40  A    between atoms: N_98  and  CA_99 
REMARK   41  A    between atoms: CA_99  and  CB_102 
REMARK   42  A    between atoms: CA_99  and  C_100 
REMARK       I    between atoms: C_100  and  N_109 
REMARK   43  A    between atoms: CB_102  and  CG_103 
REMARK       I    between atoms: CG_103  and  ND2_105 
REMARK   44  A    between atoms: N_109  and  CA_110 
REMARK   45  A    between atoms: CA_110  and  C_111 
REMARK   46  A    between atoms: CA_110  and  CB_113 
REMARK       I    between atoms: C_111  and  N_117 
REMARK   47  A    between atoms: CB_113  and  OG_114 
REMARK   48  A    between atoms: N_117  and  CA_118 
REMARK   49  A    between atoms: CA_118  and  C_119 
REMARK   50  A    between atoms: CA_118  and  CB_121 
REMARK       I    between atoms: C_119  and  N_126 
REMARK   51  A    between atoms: CB_121  and  CG_122 
REMARK   52  A    between atoms: N_126  and  CA_127 
REMARK   53  A    between atoms: CA_127  and  C_128 
REMARK   54  A    between atoms: CA_127  and  CB_130 
REMARK       I    between atoms: C_128  and  N_138 
REMARK   55  A    between atoms: CB_130  and  CG_131 
REMARK   56  A    between atoms: N_138  and  CA_139 
REMARK   57  A    between atoms: CA_139  and  C_140 
REMARK       I    between atoms: C_140  and  N_143 
REMARK   58  A    between atoms: N_143  and  CA_144 
REMARK   59  A    between atoms: CA_144  and  C_145 
REMARK   60  A    between atoms: CA_144  and  CB_147 
REMARK   61  A    between atoms: CB_147  and  CG_148 
REMARK   62  A    between atoms: CG_148  and  CD_149 
REMARK   63  A    between atoms: CD_149  and  NE_150 
REMARK       I    between atoms: NE_150  and  CZ_151 
REMARK       I    between atoms: CZ_151  and  NH1_152 
ROOT
ATOM      1  N   PHE     1      61.863  41.648  60.920  1.00  0.00    -0.057 N 
ATOM      2  H1  PHE     1      62.036  42.635  60.950  1.00 99.99     0.276 HD
ATOM      3  H2  PHE     1      61.328  41.392  61.711  1.00 99.99     0.276 HD
ATOM      4  H3  PHE     1      62.718  41.161  61.019  1.00 99.99     0.276 HD
ENDROOT
BRANCH   1   5
ATOM      5  CA  PHE     1      61.168  41.345  59.645  1.00  0.00     0.259 C 
BRANCH   5   6
ATOM      6  C   PHE     1      59.723  40.847  59.888  1.00  0.00     0.259 C 
ATOM      7  O   PHE     1      59.396  40.431  60.998  1.00  0.00    -0.271 OA
ATOM      8  N   ILE     2      58.860  40.923  58.873  1.00  0.00    -0.338 N 
ATOM      9  H   ILE     2      59.095  41.313  57.984  1.00 99.99     0.164 HD
BRANCH   8  10
ATOM     10  CA  ILE     2      57.476  40.413  58.982  1.00  0.00     0.159 C 
BRANCH  10  11
ATOM     11  CB  ILE     2      56.488  41.281  58.170  1.00  0.00     0.029 C 
ATOM     12  CG2 ILE     2      55.420  40.402  57.492  1.00  0.00     0.002 C 
BRANCH  11  13
ATOM     13  CG1 ILE     2      55.824  42.332  59.081  1.00  0.00     0.002 C 
ATOM     14  CD  ILE     2      56.629  43.625  59.279  1.00  0.00     0.000 C 
ENDBRANCH  11  13
ENDBRANCH  10  11
BRANCH  10  15
ATOM     15  C   ILE     2      57.468  38.934  58.556  1.00  0.00     0.251 C 
ATOM     16  O   ILE     2      56.707  38.135  59.099  1.00  0.00    -0.271 OA
ATOM     17  N   PHE     3      58.239  38.644  57.509  1.00  0.00    -0.337 N 
ATOM     18  H   PHE     3      58.798  39.342  57.060  1.00 99.99     0.164 HD
BRANCH  17  19
ATOM     19  CA  PHE     3      58.312  37.297  56.907  1.00  0.00     0.164 C 
BRANCH  19  20
ATOM     20  C   PHE     3      59.735  36.869  56.490  1.00  0.00     0.254 C 
ATOM     21  O   PHE     3      59.896  36.347  55.384  1.00  0.00    -0.270 OA
ATOM     22  N   PRO     4      60.680  36.872  57.450  1.00  0.00    -0.312 N 
ATOM     23  CD  PRO     4      60.403  36.815  58.904  1.00  0.00     0.105 C 
ATOM     24  CA  PRO     4      62.139  36.717  57.245  1.00  0.00     0.163 C 
ATOM     25  CG  PRO     4      61.766  36.669  59.585  1.00  0.00     0.027 C 
ATOM     26  CB  PRO     4      62.620  36.002  58.511  1.00  0.00     0.034 C 
BRANCH  24  27
ATOM     27  C   PRO     4      62.699  36.125  55.938  1.00  0.00     0.251 C 
ATOM     28  O   PRO     4      62.828  34.908  55.834  1.00  0.00    -0.271 OA
ATOM     29  N   LYS     5      62.961  36.965  54.933  1.00  0.00    -0.338 N 
ATOM     30  H   LYS     5      62.958  37.952  55.068  1.00 99.99     0.164 HD
BRANCH  29  31
ATOM     31  CA  LYS     5      63.314  36.518  53.565  1.00  0.00     0.159 C 
BRANCH  31  32
ATOM     32  C   LYS     5      64.423  37.352  52.898  1.00  0.00     0.251 C 
ATOM     33  N   LYS     6      64.734  38.477  53.553  1.00  0.00    -0.338 N 
ATOM     34  H   LYS     6      64.183  38.771  54.333  1.00 99.99     0.164 HD
ATOM     35  O   LYS     5      65.117  36.858  52.010  1.00  0.00    -0.271 OA
BRANCH  33  36
ATOM     36  CA  LYS     6      65.761  39.467  53.143  1.00  0.00     0.159 C 
BRANCH  36  37
ATOM     37  CB  LYS     6      67.031  39.191  53.967  1.00  0.00     0.032 C 
BRANCH  37  38
ATOM     38  CG  LYS     6      66.771  38.649  55.378  1.00  0.00     0.004 C 
BRANCH  38  39
ATOM     39  CD  LYS     6      66.914  39.746  56.438  1.00  0.00     0.032 C 
BRANCH  39  40
ATOM     40  CE  LYS     6      66.232  39.337  57.747  1.00  0.00     0.206 C 
BRANCH  40  41
ATOM     41  NZ  LYS     6      65.964  37.891  57.800  1.00  0.00    -0.064 N 
ATOM     42  HZ2 LYS     6      66.474  37.426  57.076  1.00 99.99     0.275 HD
ATOM     43  HZ1 LYS     6      64.986  37.728  57.667  1.00 99.99     0.275 HD
ATOM     44  HZ3 LYS     6      66.240  37.525  58.690  1.00 99.99     0.275 HD
ENDBRANCH  40  41
ENDBRANCH  39  40
ENDBRANCH  38  39
ENDBRANCH  37  38
ENDBRANCH  36  37
BRANCH  36  45
ATOM     45  C   LYS     6      66.068  39.445  51.630  1.00  0.00     0.251 C 
ATOM     46  O   LYS     6      67.183  39.142  51.208  1.00  0.00    -0.271 OA
ATOM     47  N   ASN     7      65.106  39.941  50.856  1.00  0.00    -0.337 N 
ATOM     48  H   ASN     7      64.189  40.098  51.224  1.00 99.99     0.164 HD
BRANCH  47  49
ATOM     49  CA  ASN     7      65.178  40.038  49.385  1.00  0.00     0.169 C 
BRANCH  49  50
ATOM     50  C   ASN     7      65.515  41.464  48.907  1.00  0.00     0.251 C 
ATOM     51  O   ASN     7      66.667  41.882  49.003  1.00  0.00    -0.271 OA
ATOM     52  N   ILE     8      64.471  42.269  48.692  1.00  0.00    -0.338 N 
ATOM     53  H   ILE     8      63.550  42.004  48.973  1.00 99.99     0.164 HD
BRANCH  52  54
ATOM     54  CA  ILE     8      64.579  43.657  48.185  1.00  0.00     0.159 C 
BRANCH  54  55
ATOM     55  C   ILE     8      65.328  43.716  46.835  1.00  0.00     0.251 C 
ATOM     56  O   ILE     8      65.529  44.813  46.316  1.00  0.00    -0.271 OA
ATOM     57  N   ILE     9      65.627  42.559  46.239  1.00  0.00    -0.338 N 
ATOM     58  H   ILE     9      65.462  41.670  46.671  1.00 99.99     0.164 HD
BRANCH  57  59
ATOM     59  CA  ILE     9      66.266  42.500  44.902  1.00  0.00     0.159 C 
BRANCH  59  60
ATOM     60  C   ILE     9      65.395  41.809  43.831  1.00  0.00     0.251 C 
ATOM     61  O   ILE     9      65.825  41.675  42.687  1.00  0.00    -0.271 OA
ATOM     62  N   ASN    10      64.136  41.530  44.157  1.00  0.00    -0.337 N 
ATOM     63  H   ASN    10      63.771  41.655  45.082  1.00 99.99     0.164 HD
BRANCH  62  64
ATOM     64  CA  ASN    10      63.192  40.985  43.162  1.00  0.00     0.169 C 
BRANCH  64  65
ATOM     65  CB  ASN    10      62.631  39.638  43.623  1.00  0.00     0.119 C 
BRANCH  65  66
ATOM     66  CG  ASN    10      63.719  38.552  43.661  1.00  0.00     0.230 C 
ATOM     67  ND2 ASN    10      63.820  37.799  42.592  1.00  0.00    -0.369 N 
ATOM     68 1HD2 ASN    10      64.524  37.094  42.611  1.00 99.99     0.159 HD
ATOM     69 2HD2 ASN    10      63.231  37.947  41.806  1.00 99.99     0.159 HD
ATOM     70  OD1 ASN    10      64.515  38.419  44.580  1.00  0.00    -0.273 OA
ENDBRANCH  65  66
ENDBRANCH  64  65
BRANCH  64  71
ATOM     71  C   ASN    10      62.106  41.995  42.755  1.00  0.00     0.251 C 
ATOM     72  O   ASN    10      61.714  42.820  43.581  1.00  0.00    -0.271 OA
ATOM     73  N   SER    11      61.459  41.742  41.616  1.00  0.00    -0.336 N 
ATOM     74  H   SER    11      61.762  41.024  40.981  1.00 99.99     0.164 HD
BRANCH  73  75
ATOM     75  CA  SER    11      60.332  42.560  41.105  1.00  0.00     0.189 C 
BRANCH  75  76
ATOM     76  C   SER    11      58.955  42.105  41.619  1.00  0.00     0.253 C 
ATOM     77  N   LEU    12      58.907  41.689  42.886  1.00  0.00    -0.337 N 
ATOM     78  H   LEU    12      59.743  41.561  43.425  1.00 99.99     0.164 HD
ATOM     79  O   SER    11      57.985  42.110  40.868  1.00  0.00    -0.270 OA
BRANCH  77  80
ATOM     80  CA  LEU    12      57.668  41.270  43.577  1.00  0.00     0.159 C 
BRANCH  80  81
ATOM     81  C   LEU    12      57.647  41.378  45.111  1.00  0.00     0.251 C 
ATOM     82  O   LEU    12      56.760  40.807  45.746  1.00  0.00    -0.271 OA
ATOM     83  N   PHE    13      58.706  41.946  45.680  1.00  0.00    -0.337 N 
ATOM     84  H   PHE    13      59.513  42.211  45.153  1.00 99.99     0.164 HD
BRANCH  83  85
ATOM     85  CA  PHE    13      58.833  42.087  47.142  1.00  0.00     0.164 C 
BRANCH  85  86
ATOM     86  C   PHE    13      57.792  43.037  47.765  1.00  0.00     0.251 C 
ATOM     87  O   PHE    13      57.871  44.244  47.543  1.00  0.00    -0.271 OA
ATOM     88  N   GLY    14      56.923  42.497  48.635  1.00  0.00    -0.336 N 
ATOM     89  H   GLY    14      57.002  41.555  48.990  1.00 99.99     0.164 HD
BRANCH  88  90
ATOM     90  CA  GLY    14      55.784  43.256  49.191  1.00  0.00     0.189 C 
BRANCH  90  91
ATOM     91  C   GLY    14      55.874  43.292  50.724  1.00  0.00     0.253 C 
ATOM     92  N   ARG    15      56.622  42.335  51.264  1.00  0.00    -0.336 N 
ATOM     93  H   ARG    15      57.204  41.752  50.700  1.00 99.99     0.164 HD
ATOM     94  O   GLY    14      55.266  44.129  51.384  1.00  0.00    -0.270 OA
BRANCH  92  95
ATOM     95  CA  ARG    15      56.747  42.126  52.728  1.00  0.00     0.168 C 
BRANCH  95  96
ATOM     96  C   ARG    15      58.221  42.141  53.161  1.00  0.00     0.206 C 
ATOM     97  O   ARG    15      58.843  43.224  53.126  1.00 99.99    -0.646 OA
ATOM     98  OXT ARG    15      58.679  41.035  53.526  1.00 99.99    -0.646 OA
ENDBRANCH  95  96
BRANCH  95  99
ATOM     99  CB  ARG    15      56.186  40.753  53.121  1.00  0.00     0.035 C 
BRANCH  99 100
ATOM    100  CG  ARG    15      55.258  40.104  52.093  1.00  0.00     0.027 C 
BRANCH 100 101
ATOM    101  CD  ARG    15      54.019  39.468  52.715  1.00  0.00     0.116 C 
BRANCH 101 102
ATOM    102  NE  ARG    15      53.391  38.661  51.658  1.00  0.00    -0.212 N 
ATOM    103  CZ  ARG    15      52.410  39.038  50.839  1.00  0.00     0.666 C 
ATOM    104  NH2 ARG    15      52.123  38.287  49.788  1.00  0.00    -0.235 N 
ATOM    105  NH1 ARG    15      51.832  40.227  50.934  1.00  0.00    -0.235 N 
ATOM    106 1HH2 ARG    15      51.397  38.568  49.165  1.00 99.99     0.174 HD
ATOM    107 2HH2 ARG    15      52.662  37.469  49.599  1.00 99.99     0.174 HD
ATOM    108 2HH1 ARG    15      52.167  40.870  51.619  1.00 99.99     0.174 HD
ATOM    109 1HH1 ARG    15      51.110  40.492  50.299  1.00 99.99     0.174 HD
ATOM    110  HE  ARG    15      53.708  37.714  51.609  1.00 99.99     0.178 HD
ENDBRANCH 101 102
ENDBRANCH 100 101
ENDBRANCH  99 100
ENDBRANCH  95  99
ENDBRANCH  92  95
ENDBRANCH  90  91
ENDBRANCH  88  90
ENDBRANCH  85  86
BRANCH  85 111
ATOM    111  CB  PHE    13      60.272  42.523  47.451  1.00  0.00     0.056 C 
BRANCH 111 112
ATOM    112  CG  PHE    13      60.708  42.240  48.890  1.00  0.00    -0.044 A 
ATOM    113  CD2 PHE    13      61.298  43.259  49.623  1.00  0.00     0.008 A 
ATOM    114  CE2 PHE    13      61.726  43.032  50.923  1.00  0.00     0.001 A 
ATOM    115  CZ  PHE    13      61.560  41.778  51.496  1.00  0.00     0.000 A 
ATOM    116  CE1 PHE    13      60.965  40.755  50.766  1.00  0.00     0.001 A 
ATOM    117  CD1 PHE    13      60.545  40.981  49.459  1.00  0.00     0.008 A 
ENDBRANCH 111 112
ENDBRANCH  85 111
ENDBRANCH  83  85
ENDBRANCH  80  81
BRANCH  80 118
ATOM    118  CB  LEU    12      57.308  39.835  43.190  1.00  0.00     0.032 C 
BRANCH 118 119
ATOM    119  CG  LEU    12      58.480  38.860  43.312  1.00  0.00     0.002 C 
ATOM    120  CD2 LEU    12      58.859  38.240  41.962  1.00  0.00     0.000 C 
ATOM    121  CD1 LEU    12      58.055  37.753  44.266  1.00  0.00     0.000 C 
ENDBRANCH 118 119
ENDBRANCH  80 118
ENDBRANCH  77  80
ENDBRANCH  75  76
BRANCH  75 122
ATOM    122  CB  SER    11      60.292  42.537  39.573  1.00  0.00     0.169 C 
BRANCH 122 123
ATOM    123  OG  SER    11      60.180  41.196  39.086  1.00  0.00    -0.380 OA
ATOM    124  HG  SER    11      60.518  41.162  38.147  1.00 99.99     0.211 HD
ENDBRANCH 122 123
ENDBRANCH  75 122
ENDBRANCH  73  75
ENDBRANCH  64  71
ENDBRANCH  62  64
ENDBRANCH  59  60
BRANCH  59 125
ATOM    125  CB  ILE     9      67.730  41.991  44.958  1.00  0.00     0.029 C 
ATOM    126  CG2 ILE     9      68.698  43.005  45.577  1.00  0.00     0.002 C 
BRANCH 125 127
ATOM    127  CG1 ILE     9      67.899  40.640  45.676  1.00  0.00     0.002 C 
ATOM    128  CD  ILE     9      68.451  39.511  44.798  1.00  0.00     0.000 C 
ENDBRANCH 125 127
ENDBRANCH  59 125
ENDBRANCH  57  59
ENDBRANCH  54  55
BRANCH  54 129
ATOM    129  CB  ILE     8      65.184  44.586  49.263  1.00  0.00     0.029 C 
ATOM    130  CG2 ILE     8      66.670  44.874  48.985  1.00  0.00     0.002 C 
BRANCH 129 131
ATOM    131  CG1 ILE     8      64.389  45.905  49.328  1.00  0.00     0.002 C 
ATOM    132  CD  ILE     8      63.438  46.037  50.527  1.00  0.00     0.000 C 
ENDBRANCH 129 131
ENDBRANCH  54 129
ENDBRANCH  52  54
ENDBRANCH  49  50
BRANCH  49 133
ATOM    133  CB  ASN     7      63.842  39.558  48.793  1.00  0.00     0.119 C 
BRANCH 133 134
ATOM    134  CG  ASN     7      63.721  38.032  48.622  1.00  0.00     0.230 C 
ATOM    135  ND2 ASN     7      64.165  37.534  47.493  1.00  0.00    -0.369 N 
ATOM    136 1HD2 ASN     7      64.089  36.545  47.382  1.00 99.99     0.159 HD
ATOM    137 2HD2 ASN     7      64.546  38.117  46.781  1.00 99.99     0.159 HD
ATOM    138  OD1 ASN     7      63.121  37.308  49.406  1.00  0.00    -0.273 OA
ENDBRANCH 133 134
ENDBRANCH  49 133
ENDBRANCH  47  49
ENDBRANCH  36  45
ENDBRANCH  33  36
ENDBRANCH  31  32
BRANCH  31 139
ATOM    139  CB  LYS     5      62.067  36.506  52.670  1.00  0.00     0.032 C 
BRANCH 139 140
ATOM    140  CG  LYS     5      61.276  37.817  52.728  1.00  0.00     0.004 C 
BRANCH 140 141
ATOM    141  CD  LYS     5      59.861  37.639  52.172  1.00  0.00     0.032 C 
BRANCH 141 142
ATOM    142  CE  LYS     5      59.896  37.008  50.777  1.00  0.00     0.206 C 
BRANCH 142 143
ATOM    143  NZ  LYS     5      58.783  37.475  49.936  1.00  0.00    -0.064 N 
ATOM    144  HZ3 LYS     5      58.189  36.706  49.699  1.00 99.99     0.275 HD
ATOM    145  HZ1 LYS     5      58.251  38.157  50.439  1.00 99.99     0.275 HD
ATOM    146  HZ2 LYS     5      59.140  37.893  49.100  1.00 99.99     0.275 HD
ENDBRANCH 142 143
ENDBRANCH 141 142
ENDBRANCH 140 141
ENDBRANCH 139 140
ENDBRANCH  31 139
ENDBRANCH  29  31
ENDBRANCH  24  27
ENDBRANCH  19  20
BRANCH  19 147
ATOM    147  CB  PHE     3      57.367  37.207  55.700  1.00  0.00     0.056 C 
BRANCH 147 148
ATOM    148  CG  PHE     3      55.942  36.708  55.970  1.00  0.00    -0.044 A 
ATOM    149  CD2 PHE     3      55.816  35.635  56.839  1.00  0.00     0.008 A 
ATOM    150  CE2 PHE     3      54.569  35.161  57.216  1.00  0.00     0.001 A 
ATOM    151  CZ  PHE     3      53.423  35.773  56.731  1.00  0.00     0.000 A 
ATOM    152  CE1 PHE     3      53.535  36.851  55.864  1.00  0.00     0.001 A 
ATOM    153  CD1 PHE     3      54.786  37.324  55.487  1.00  0.00     0.008 A 
ENDBRANCH 147 148
ENDBRANCH  19 147
ENDBRANCH  17  19
ENDBRANCH  10  15
ENDBRANCH   8  10
ENDBRANCH   5   6
BRANCH   5 154
ATOM    154  CB  PHE     1      61.924  40.270  58.847  1.00  0.00     0.064 C 
BRANCH 154 155
ATOM    155  CG  PHE     1      62.250  40.692  57.414  1.00  0.00    -0.044 A 
ATOM    156  CD2 PHE     1      63.380  41.460  57.150  1.00  0.00     0.008 A 
ATOM    157  CE2 PHE     1      63.739  41.739  55.838  1.00  0.00     0.001 A 
ATOM    158  CZ  PHE     1      62.968  41.255  54.788  1.00  0.00     0.000 A 
ATOM    159  CE1 PHE     1      61.830  40.504  55.053  1.00  0.00     0.001 A 
ATOM    160  CD1 PHE     1      61.463  40.231  56.364  1.00  0.00     0.008 A 
ENDBRANCH 154 155
ENDBRANCH   5 154
ENDBRANCH   1   5
TORSDOF 63
ENDMDL
MODEL 4
REMARK VINA RESULT:      -3.3      3.263     10.825
REMARK WARNING: 32 MAX_TORS EXCEEDED!!!
REMARK  63 active torsions:
REMARK  status: ('A' for Active; 'I' for Inactive)
REMARK    1  A    between atoms: N_1  and  CA_2 
REMARK    2  A    between atoms: CA_2  and  C_3 
REMARK    3  A    between atoms: CA_2  and  CB_5 
REMARK       I    between atoms: C_3  and  N_15 
REMARK    4  A    between atoms: CB_5  and  CG_6 
REMARK    5  A    between atoms: N_15  and  CA_16 
REMARK    6  A    between atoms: CA_16  and  CB_19 
REMARK    7  A    between atoms: CA_16  and  C_17 
REMARK       I    between atoms: C_17  and  N_24 
REMARK    8  A    between atoms: CB_19  and  CG1_20 
REMARK    9  A    between atoms: N_24  and  CA_25 
REMARK   10  A    between atoms: CA_25  and  C_26 
REMARK   11  A    between atoms: CA_25  and  CB_28 
REMARK       I    between atoms: C_26  and  N_36 
REMARK   12  A    between atoms: CB_28  and  CG_29 
REMARK   13  A    between atoms: CA_37  and  C_38 
REMARK       I    between atoms: C_38  and  N_43 
REMARK   14  A    between atoms: N_43  and  CA_44 
REMARK   15  A    between atoms: CA_44  and  C_45 
REMARK   16  A    between atoms: CA_44  and  CB_47 
REMARK       I    between atoms: C_45  and  N_56 
REMARK   17  A    between atoms: CB_47  and  CG_48 
REMARK   18  A    between atoms: CG_48  and  CD_49 
REMARK   19  A    between atoms: CD_49  and  CE_50 
REMARK   20  A    between atoms: CE_50  and  NZ_51 
REMARK   21  A    between atoms: N_56  and  CA_57 
REMARK   22  A    between atoms: CA_57  and  CB_60 
REMARK   23  A    between atoms: CA_57  and  C_58 
REMARK       I    between atoms: C_58  and  N_69 
REMARK   24  A    between atoms: CB_60  and  CG_61 
REMARK   25  A    between atoms: CG_61  and  CD_62 
REMARK   26  A    between atoms: CD_62  and  CE_63 
REMARK   27  A    between atoms: CE_63  and  NZ_64 
REMARK   28  A    between atoms: N_69  and  CA_70 
REMARK   29  A    between atoms: CA_70  and  C_71 
REMARK   30  A    between atoms: CA_70  and  CB_73 
REMARK       I    between atoms: C_71  and  N_80 
REMARK   31  A    between atoms: CB_73  and  CG_74 
REMARK       I    between atoms: CG_74  and  ND2_76 
REMARK   32  A    between atoms: N_80  and  CA_81 
REMARK   33  A    between atoms: CA_81  and  C_82 
REMARK   34  A    between atoms: CA_81  and  CB_84 
REMARK       I    between atoms: C_82  and  N_89 
REMARK   35  A    between atoms: CB_84  and  CG1_85 
REMARK   36  A    between atoms: N_89  and  CA_90 
REMARK   37  A    between atoms: CA_90  and  C_91 
REMARK   38  A    between atoms: CA_90  and  CB_93 
REMARK       I    between atoms: C_91  and  N_98 
REMARK   39  A    between atoms: CB_93  and  CG1_94 
REMARK   40  A    between atoms: N_98  and  CA_99 
REMARK   41  A    between atoms: CA_99  and  CB_102 
REMARK   42  A    between atoms: CA_99  and  C_100 
REMARK       I    between atoms: C_100  and  N_109 
REMARK   43  A    between atoms: CB_102  and  CG_103 
REMARK       I    between atoms: CG_103  and  ND2_105 
REMARK   44  A    between atoms: N_109  and  CA_110 
REMARK   45  A    between atoms: CA_110  and  C_111 
REMARK   46  A    between atoms: CA_110  and  CB_113 
REMARK       I    between atoms: C_111  and  N_117 
REMARK   47  A    between atoms: CB_113  and  OG_114 
REMARK   48  A    between atoms: N_117  and  CA_118 
REMARK   49  A    between atoms: CA_118  and  C_119 
REMARK   50  A    between atoms: CA_118  and  CB_121 
REMARK       I    between atoms: C_119  and  N_126 
REMARK   51  A    between atoms: CB_121  and  CG_122 
REMARK   52  A    between atoms: N_126  and  CA_127 
REMARK   53  A    between atoms: CA_127  and  C_128 
REMARK   54  A    between atoms: CA_127  and  CB_130 
REMARK       I    between atoms: C_128  and  N_138 
REMARK   55  A    between atoms: CB_130  and  CG_131 
REMARK   56  A    between atoms: N_138  and  CA_139 
REMARK   57  A    between atoms: CA_139  and  C_140 
REMARK       I    between atoms: C_140  and  N_143 
REMARK   58  A    between atoms: N_143  and  CA_144 
REMARK   59  A    between atoms: CA_144  and  C_145 
REMARK   60  A    between atoms: CA_144  and  CB_147 
REMARK   61  A    between atoms: CB_147  and  CG_148 
REMARK   62  A    between atoms: CG_148  and  CD_149 
REMARK   63  A    between atoms: CD_149  and  NE_150 
REMARK       I    between atoms: NE_150  and  CZ_151 
REMARK       I    between atoms: CZ_151  and  NH1_152 
ROOT
ATOM      1  N   PHE     1      60.962  42.102  60.998  1.00  0.00    -0.057 N 
ATOM      2  H1  PHE     1      61.194  43.071  60.886  1.00 99.99     0.276 HD
ATOM      3  H2  PHE     1      60.061  42.033  61.398  1.00 99.99     0.276 HD
ATOM      4  H3  PHE     1      61.571  41.693  61.663  1.00 99.99     0.276 HD
ENDROOT
BRANCH   1   5
ATOM      5  CA  PHE     1      61.042  41.456  59.665  1.00  0.00     0.259 C 
BRANCH   5   6
ATOM      6  C   PHE     1      59.803  40.573  59.385  1.00  0.00     0.259 C 
ATOM      7  O   PHE     1      59.778  39.407  59.779  1.00  0.00    -0.271 OA
ATOM      8  N   ILE     2      58.773  41.131  58.746  1.00  0.00    -0.338 N 
ATOM      9  H   ILE     2      58.756  42.091  58.472  1.00 99.99     0.164 HD
BRANCH   8  10
ATOM     10  CA  ILE     2      57.571  40.355  58.371  1.00  0.00     0.159 C 
BRANCH  10  11
ATOM     11  CB  ILE     2      56.300  41.235  58.398  1.00  0.00     0.029 C 
ATOM     12  CG2 ILE     2      55.032  40.360  58.393  1.00  0.00     0.002 C 
BRANCH  11  13
ATOM     13  CG1 ILE     2      56.314  42.160  59.631  1.00  0.00     0.002 C 
ATOM     14  CD  ILE     2      56.317  43.663  59.317  1.00  0.00     0.000 C 
ENDBRANCH  11  13
ENDBRANCH  10  11
BRANCH  10  15
ATOM     15  C   ILE     2      57.821  39.702  57.001  1.00  0.00     0.251 C 
ATOM     16  O   ILE     2      57.413  38.565  56.770  1.00  0.00    -0.271 OA
ATOM     17  N   PHE     3      58.386  40.496  56.092  1.00  0.00    -0.337 N 
ATOM     18  H   PHE     3      58.648  41.436  56.307  1.00 99.99     0.164 HD
BRANCH  17  19
ATOM     19  CA  PHE     3      58.642  40.074  54.699  1.00  0.00     0.164 C 
BRANCH  19  20
ATOM     20  C   PHE     3      59.955  39.284  54.510  1.00  0.00     0.254 C 
ATOM     21  O   PHE     3      61.013  39.909  54.413  1.00  0.00    -0.270 OA
ATOM     22  N   PRO     4      59.842  37.972  54.225  1.00  0.00    -0.312 N 
ATOM     23  CD  PRO     4      58.633  37.336  53.654  1.00  0.00     0.105 C 
ATOM     24  CA  PRO     4      60.941  36.979  54.220  1.00  0.00     0.163 C 
ATOM     25  CG  PRO     4      59.026  35.889  53.346  1.00  0.00     0.027 C 
ATOM     26  CB  PRO     4      60.534  35.978  53.135  1.00  0.00     0.034 C 
BRANCH  24  27
ATOM     27  C   PRO     4      62.414  37.424  54.146  1.00  0.00     0.251 C 
ATOM     28  O   PRO     4      62.864  37.840  53.082  1.00  0.00    -0.271 OA
ATOM     29  N   LYS     5      63.131  37.401  55.272  1.00  0.00    -0.338 N 
ATOM     30  H   LYS     5      62.789  36.958  56.097  1.00 99.99     0.164 HD
BRANCH  29  31
ATOM     31  CA  LYS     5      64.490  37.981  55.388  1.00  0.00     0.159 C 
BRANCH  31  32
ATOM     32  C   LYS     5      65.351  37.823  54.122  1.00  0.00     0.251 C 
ATOM     33  N   LYS     6      65.812  38.975  53.623  1.00  0.00    -0.338 N 
ATOM     34  H   LYS     6      65.497  39.846  53.999  1.00 99.99     0.164 HD
ATOM     35  O   LYS     5      65.776  36.713  53.801  1.00  0.00    -0.271 OA
BRANCH  33  36
ATOM     36  CA  LYS     6      66.662  39.122  52.415  1.00  0.00     0.159 C 
BRANCH  36  37
ATOM     37  CB  LYS     6      67.850  38.152  52.560  1.00  0.00     0.032 C 
BRANCH  37  38
ATOM     38  CG  LYS     6      69.201  38.727  52.121  1.00  0.00     0.004 C 
BRANCH  38  39
ATOM     39  CD  LYS     6      70.269  38.545  53.205  1.00  0.00     0.032 C 
BRANCH  39  40
ATOM     40  CE  LYS     6      69.671  38.731  54.602  1.00  0.00     0.206 C 
BRANCH  40  41
ATOM     41  NZ  LYS     6      70.181  37.735  55.558  1.00  0.00    -0.064 N 
ATOM     42  HZ2 LYS     6      69.634  37.760  56.396  1.00 99.99     0.275 HD
ATOM     43  HZ1 LYS     6      71.132  37.946  55.784  1.00 99.99     0.275 HD
ATOM     44  HZ3 LYS     6      70.133  36.820  55.156  1.00 99.99     0.275 HD
ENDBRANCH  40  41
ENDBRANCH  39  40
ENDBRANCH  38  39
ENDBRANCH  37  38
ENDBRANCH  36  37
BRANCH  36  45
ATOM     45  C   LYS     6      65.904  38.872  51.093  1.00  0.00     0.251 C 
ATOM     46  O   LYS     6      66.203  37.940  50.350  1.00  0.00    -0.271 OA
ATOM     47  N   ASN     7      65.045  39.830  50.752  1.00  0.00    -0.337 N 
ATOM     48  H   ASN     7      64.768  40.524  51.416  1.00 99.99     0.164 HD
BRANCH  47  49
ATOM     49  CA  ASN     7      64.220  39.819  49.528  1.00  0.00     0.169 C 
BRANCH  49  50
ATOM     50  C   ASN     7      64.343  41.130  48.726  1.00  0.00     0.251 C 
ATOM     51  O   ASN     7      65.439  41.676  48.618  1.00  0.00    -0.271 OA
ATOM     52  N   ILE     8      63.196  41.753  48.447  1.00  0.00    -0.338 N 
ATOM     53  H   ILE     8      62.337  41.464  48.866  1.00 99.99     0.164 HD
BRANCH  52  54
ATOM     54  CA  ILE     8      63.096  42.997  47.648  1.00  0.00     0.159 C 
BRANCH  54  55
ATOM     55  C   ILE     8      64.283  43.145  46.669  1.00  0.00     0.251 C 
ATOM     56  O   ILE     8      64.905  44.206  46.647  1.00  0.00    -0.271 OA
ATOM     57  N   ILE     9      64.509  42.146  45.812  1.00  0.00    -0.338 N 
ATOM     58  H   ILE     9      63.999  41.283  45.840  1.00 99.99     0.164 HD
BRANCH  57  59
ATOM     59  CA  ILE     9      65.564  42.219  44.773  1.00  0.00     0.159 C 
BRANCH  59  60
ATOM     60  C   ILE     9      65.093  41.749  43.380  1.00  0.00     0.251 C 
ATOM     61  O   ILE     9      65.703  42.111  42.375  1.00  0.00    -0.271 OA
ATOM     62  N   ASN    10      63.937  41.096  43.316  1.00  0.00    -0.337 N 
ATOM     63  H   ASN    10      63.423  40.815  44.130  1.00 99.99     0.164 HD
BRANCH  62  64
ATOM     64  CA  ASN    10      63.344  40.717  42.019  1.00  0.00     0.169 C 
BRANCH  64  65
ATOM     65  CB  ASN    10      63.028  39.220  41.981  1.00  0.00     0.119 C 
BRANCH  65  66
ATOM     66  CG  ASN    10      64.242  38.394  41.528  1.00  0.00     0.230 C 
ATOM     67  ND2 ASN    10      65.234  39.069  40.997  1.00  0.00    -0.369 N 
ATOM     68 1HD2 ASN    10      66.025  38.539  40.703  1.00 99.99     0.159 HD
ATOM     69 2HD2 ASN    10      65.192  40.058  40.916  1.00 99.99     0.159 HD
ATOM     70  OD1 ASN    10      64.352  37.189  41.710  1.00  0.00    -0.273 OA
ENDBRANCH  65  66
ENDBRANCH  64  65
BRANCH  64  71
ATOM     71  C   ASN    10      62.152  41.607  41.627  1.00  0.00     0.251 C 
ATOM     72  O   ASN    10      61.776  42.484  42.404  1.00  0.00    -0.271 OA
ATOM     73  N   SER    11      61.423  41.195  40.587  1.00  0.00    -0.336 N 
ATOM     74  H   SER    11      61.719  40.437  39.998  1.00 99.99     0.164 HD
BRANCH  73  75
ATOM     75  CA  SER    11      60.196  41.880  40.114  1.00  0.00     0.189 C 
BRANCH  75  76
ATOM     76  C   SER    11      58.922  41.452  40.863  1.00  0.00     0.253 C 
ATOM     77  N   LEU    12      59.008  40.332  41.582  1.00  0.00    -0.337 N 
ATOM     78  H   LEU    12      59.818  39.740  41.530  1.00 99.99     0.164 HD
ATOM     79  O   SER    11      57.893  42.113  40.756  1.00  0.00    -0.270 OA
BRANCH  77  80
ATOM     80  CA  LEU    12      57.912  39.790  42.415  1.00  0.00     0.159 C 
BRANCH  80  81
ATOM     81  C   LEU    12      57.940  40.121  43.916  1.00  0.00     0.251 C 
ATOM     82  O   LEU    12      56.976  39.824  44.620  1.00  0.00    -0.271 OA
ATOM     83  N   PHE    13      59.098  40.558  44.406  1.00  0.00    -0.337 N 
ATOM     84  H   PHE    13      59.929  40.589  43.853  1.00 99.99     0.164 HD
BRANCH  83  85
ATOM     85  CA  PHE    13      59.276  40.883  45.833  1.00  0.00     0.164 C 
BRANCH  85  86
ATOM     86  C   PHE    13      59.101  42.380  46.154  1.00  0.00     0.251 C 
ATOM     87  O   PHE    13      59.983  43.172  45.828  1.00  0.00    -0.271 OA
ATOM     88  N   GLY    14      58.038  42.718  46.901  1.00  0.00    -0.336 N 
ATOM     89  H   GLY    14      57.441  42.045  47.360  1.00 99.99     0.164 HD
BRANCH  88  90
ATOM     90  CA  GLY    14      57.666  44.125  47.160  1.00  0.00     0.189 C 
BRANCH  90  91
ATOM     91  C   GLY    14      56.490  44.186  48.144  1.00  0.00     0.253 C 
ATOM     92  N   ARG    15      56.275  43.069  48.832  1.00  0.00    -0.336 N 
ATOM     93  H   ARG    15      56.935  42.320  48.821  1.00 99.99     0.164 HD
ATOM     94  O   GLY    14      55.790  45.190  48.248  1.00  0.00    -0.270 OA
BRANCH  92  95
ATOM     95  CA  ARG    15      55.123  42.885  49.749  1.00  0.00     0.168 C 
BRANCH  95  96
ATOM     96  C   ARG    15      55.599  42.696  51.198  1.00  0.00     0.206 C 
ATOM     97  O   ARG    15      55.223  41.681  51.823  1.00 99.99    -0.646 OA
ATOM     98  OXT ARG    15      56.347  43.599  51.633  1.00 99.99    -0.646 OA
ENDBRANCH  95  96
BRANCH  95  99
ATOM     99  CB  ARG    15      54.340  41.620  49.373  1.00  0.00     0.035 C 
BRANCH  99 100
ATOM    100  CG  ARG    15      55.166  40.499  48.740  1.00  0.00     0.027 C 
BRANCH 100 101
ATOM    101  CD  ARG    15      54.322  39.320  48.268  1.00  0.00     0.116 C 
BRANCH 101 102
ATOM    102  NE  ARG    15      55.060  38.105  48.643  1.00  0.00    -0.212 N 
ATOM    103  CZ  ARG    15      55.925  37.428  47.889  1.00  0.00     0.666 C 
ATOM    104  NH2 ARG    15      56.684  36.501  48.452  1.00  0.00    -0.235 N 
ATOM    105  NH1 ARG    15      56.182  37.770  46.634  1.00  0.00    -0.235 N 
ATOM    106 1HH2 ARG    15      57.341  35.998  47.895  1.00 99.99     0.174 HD
ATOM    107 2HH2 ARG    15      56.628  36.342  49.435  1.00 99.99     0.174 HD
ATOM    108 2HH1 ARG    15      55.739  38.580  46.258  1.00 99.99     0.174 HD
ATOM    109 1HH1 ARG    15      56.845  37.256  46.095  1.00 99.99     0.174 HD
ATOM    110  HE  ARG    15      54.824  37.732  49.541  1.00 99.99     0.178 HD
ENDBRANCH 101 102
ENDBRANCH 100 101
ENDBRANCH  99 100
ENDBRANCH  95  99
ENDBRANCH  92  95
ENDBRANCH  90  91
ENDBRANCH  88  90
ENDBRANCH  85  86
BRANCH  85 111
ATOM    111  CB  PHE    13      60.650  40.354  46.269  1.00  0.00     0.056 C 
BRANCH 111 112
ATOM    112  CG  PHE    13      60.756  38.828  46.257  1.00  0.00    -0.044 A 
ATOM    113  CD2 PHE    13      61.788  38.233  45.546  1.00  0.00     0.008 A 
ATOM    114  CE2 PHE    13      61.901  36.852  45.495  1.00  0.00     0.001 A 
ATOM    115  CZ  PHE    13      60.977  36.057  46.162  1.00  0.00     0.000 A 
ATOM    116  CE1 PHE    13      59.943  36.649  46.879  1.00  0.00     0.001 A 
ATOM    117  CD1 PHE    13      59.825  38.035  46.922  1.00  0.00     0.008 A 
ENDBRANCH 111 112
ENDBRANCH  85 111
ENDBRANCH  83  85
ENDBRANCH  80  81
BRANCH  80 118
ATOM    118  CB  LEU    12      57.831  38.272  42.257  1.00  0.00     0.032 C 
BRANCH 118 119
ATOM    119  CG  LEU    12      58.856  37.517  43.105  1.00  0.00     0.002 C 
ATOM    120  CD2 LEU    12      60.023  36.987  42.264  1.00  0.00     0.000 C 
ATOM    121  CD1 LEU    12      58.136  36.342  43.751  1.00  0.00     0.000 C 
ENDBRANCH 118 119
ENDBRANCH  80 118
ENDBRANCH  77  80
ENDBRANCH  75  76
BRANCH  75 122
ATOM    122  CB  SER    11      59.971  41.625  38.620  1.00  0.00     0.169 C 
BRANCH 122 123
ATOM    123  OG  SER    11      58.732  40.945  38.400  1.00  0.00    -0.380 OA
ATOM    124  HG  SER    11      58.495  40.427  39.221  1.00 99.99     0.211 HD
ENDBRANCH 122 123
ENDBRANCH  75 122
ENDBRANCH  73  75
ENDBRANCH  64  71
ENDBRANCH  62  64
ENDBRANCH  59  60
BRANCH  59 125
ATOM    125  CB  ILE     9      66.907  41.595  45.236  1.00  0.00     0.029 C 
ATOM    126  CG2 ILE     9      67.162  40.206  44.641  1.00  0.00     0.002 C 
BRANCH 125 127
ATOM    127  CG1 ILE     9      68.137  42.482  44.972  1.00  0.00     0.002 C 
ATOM    128  CD  ILE     9      68.360  43.593  46.004  1.00  0.00     0.000 C 
ENDBRANCH 125 127
ENDBRANCH  59 125
ENDBRANCH  57  59
ENDBRANCH  54  55
BRANCH  54 129
ATOM    129  CB  ILE     8      62.905  44.224  48.569  1.00  0.00     0.029 C 
ATOM    130  CG2 ILE     8      61.417  44.588  48.716  1.00  0.00     0.002 C 
BRANCH 129 131
ATOM    131  CG1 ILE     8      63.524  43.945  49.953  1.00  0.00     0.002 C 
ATOM    132  CD  ILE     8      62.550  44.041  51.136  1.00  0.00     0.000 C 
ENDBRANCH 129 131
ENDBRANCH  54 129
ENDBRANCH  52  54
ENDBRANCH  49  50
BRANCH  49 133
ATOM    133  CB  ASN     7      62.758  39.549  49.922  1.00  0.00     0.119 C 
BRANCH 133 134
ATOM    134  CG  ASN     7      62.270  38.113  49.652  1.00  0.00     0.230 C 
ATOM    135  ND2 ASN     7      61.226  37.712  50.337  1.00  0.00    -0.369 N 
ATOM    136 1HD2 ASN     7      60.907  36.783  50.162  1.00 99.99     0.159 HD
ATOM    137 2HD2 ASN     7      60.785  38.302  51.007  1.00 99.99     0.159 HD
ATOM    138  OD1 ASN     7      62.877  37.312  48.953  1.00  0.00    -0.273 OA
ENDBRANCH 133 134
ENDBRANCH  49 133
ENDBRANCH  47  49
ENDBRANCH  36  45
ENDBRANCH  33  36
ENDBRANCH  31  32
BRANCH  31 139
ATOM    139  CB  LYS     5      65.225  37.379  56.593  1.00  0.00     0.032 C 
BRANCH 139 140
ATOM    140  CG  LYS     5      65.564  38.418  57.668  1.00  0.00     0.004 C 
BRANCH 140 141
ATOM    141  CD  LYS     5      67.076  38.523  57.883  1.00  0.00     0.032 C 
BRANCH 141 142
ATOM    142  CE  LYS     5      67.401  38.855  59.342  1.00  0.00     0.206 C 
BRANCH 142 143
ATOM    143  NZ  LYS     5      66.338  38.407  60.256  1.00  0.00    -0.064 N 
ATOM    144  HZ3 LYS     5      65.816  37.666  59.833  1.00 99.99     0.275 HD
ATOM    145  HZ1 LYS     5      66.749  38.074  61.105  1.00 99.99     0.275 HD
ATOM    146  HZ2 LYS     5      65.726  39.170  60.467  1.00 99.99     0.275 HD
ENDBRANCH 142 143
ENDBRANCH 141 142
ENDBRANCH 140 141
ENDBRANCH 139 140
ENDBRANCH  31 139
ENDBRANCH  29  31
ENDBRANCH  24  27
ENDBRANCH  19  20
BRANCH  19 147
ATOM    147  CB  PHE     3      58.632  41.296  53.768  1.00  0.00     0.056 C 
BRANCH 147 148
ATOM    148  CG  PHE     3      58.688  41.021  52.261  1.00  0.00    -0.044 A 
ATOM    149  CD2 PHE     3      59.479  41.874  51.505  1.00  0.00     0.008 A 
ATOM    150  CE2 PHE     3      59.666  41.663  50.147  1.00  0.00     0.001 A 
ATOM    151  CZ  PHE     3      59.067  40.576  49.530  1.00  0.00     0.000 A 
ATOM    152  CE1 PHE     3      58.277  39.712  50.275  1.00  0.00     0.001 A 
ATOM    153  CD1 PHE     3      58.090  39.926  51.636  1.00  0.00     0.008 A 
ENDBRANCH 147 148
ENDBRANCH  19 147
ENDBRANCH  17  19
ENDBRANCH  10  15
ENDBRANCH   8  10
ENDBRANCH   5   6
BRANCH   5 154
ATOM    154  CB  PHE     1      62.299  40.579  59.553  1.00  0.00     0.064 C 
BRANCH 154 155
ATOM    155  CG  PHE     1      63.409  41.211  58.711  1.00  0.00    -0.044 A 
ATOM    156  CD2 PHE     1      64.595  41.621  59.311  1.00  0.00     0.008 A 
ATOM    157  CE2 PHE     1      65.646  42.082  58.528  1.00  0.00     0.001 A 
ATOM    158  CZ  PHE     1      65.511  42.137  57.146  1.00  0.00     0.000 A 
ATOM    159  CE1 PHE     1      64.319  41.746  56.549  1.00  0.00     0.001 A 
ATOM    160  CD1 PHE     1      63.264  41.293  57.330  1.00  0.00     0.008 A 
ENDBRANCH 154 155
ENDBRANCH   5 154
ENDBRANCH   1   5
TORSDOF 63
ENDMDL
MODEL 5
REMARK VINA RESULT:      -3.1      1.762      2.424
REMARK WARNING: 32 MAX_TORS EXCEEDED!!!
REMARK  63 active torsions:
REMARK  status: ('A' for Active; 'I' for Inactive)
REMARK    1  A    between atoms: N_1  and  CA_2 
REMARK    2  A    between atoms: CA_2  and  C_3 
REMARK    3  A    between atoms: CA_2  and  CB_5 
REMARK       I    between atoms: C_3  and  N_15 
REMARK    4  A    between atoms: CB_5  and  CG_6 
REMARK    5  A    between atoms: N_15  and  CA_16 
REMARK    6  A    between atoms: CA_16  and  CB_19 
REMARK    7  A    between atoms: CA_16  and  C_17 
REMARK       I    between atoms: C_17  and  N_24 
REMARK    8  A    between atoms: CB_19  and  CG1_20 
REMARK    9  A    between atoms: N_24  and  CA_25 
REMARK   10  A    between atoms: CA_25  and  C_26 
REMARK   11  A    between atoms: CA_25  and  CB_28 
REMARK       I    between atoms: C_26  and  N_36 
REMARK   12  A    between atoms: CB_28  and  CG_29 
REMARK   13  A    between atoms: CA_37  and  C_38 
REMARK       I    between atoms: C_38  and  N_43 
REMARK   14  A    between atoms: N_43  and  CA_44 
REMARK   15  A    between atoms: CA_44  and  C_45 
REMARK   16  A    between atoms: CA_44  and  CB_47 
REMARK       I    between atoms: C_45  and  N_56 
REMARK   17  A    between atoms: CB_47  and  CG_48 
REMARK   18  A    between atoms: CG_48  and  CD_49 
REMARK   19  A    between atoms: CD_49  and  CE_50 
REMARK   20  A    between atoms: CE_50  and  NZ_51 
REMARK   21  A    between atoms: N_56  and  CA_57 
REMARK   22  A    between atoms: CA_57  and  CB_60 
REMARK   23  A    between atoms: CA_57  and  C_58 
REMARK       I    between atoms: C_58  and  N_69 
REMARK   24  A    between atoms: CB_60  and  CG_61 
REMARK   25  A    between atoms: CG_61  and  CD_62 
REMARK   26  A    between atoms: CD_62  and  CE_63 
REMARK   27  A    between atoms: CE_63  and  NZ_64 
REMARK   28  A    between atoms: N_69  and  CA_70 
REMARK   29  A    between atoms: CA_70  and  C_71 
REMARK   30  A    between atoms: CA_70  and  CB_73 
REMARK       I    between atoms: C_71  and  N_80 
REMARK   31  A    between atoms: CB_73  and  CG_74 
REMARK       I    between atoms: CG_74  and  ND2_76 
REMARK   32  A    between atoms: N_80  and  CA_81 
REMARK   33  A    between atoms: CA_81  and  C_82 
REMARK   34  A    between atoms: CA_81  and  CB_84 
REMARK       I    between atoms: C_82  and  N_89 
REMARK   35  A    between atoms: CB_84  and  CG1_85 
REMARK   36  A    between atoms: N_89  and  CA_90 
REMARK   37  A    between atoms: CA_90  and  C_91 
REMARK   38  A    between atoms: CA_90  and  CB_93 
REMARK       I    between atoms: C_91  and  N_98 
REMARK   39  A    between atoms: CB_93  and  CG1_94 
REMARK   40  A    between atoms: N_98  and  CA_99 
REMARK   41  A    between atoms: CA_99  and  CB_102 
REMARK   42  A    between atoms: CA_99  and  C_100 
REMARK       I    between atoms: C_100  and  N_109 
REMARK   43  A    between atoms: CB_102  and  CG_103 
REMARK       I    between atoms: CG_103  and  ND2_105 
REMARK   44  A    between atoms: N_109  and  CA_110 
REMARK   45  A    between atoms: CA_110  and  C_111 
REMARK   46  A    between atoms: CA_110  and  CB_113 
REMARK       I    between atoms: C_111  and  N_117 
REMARK   47  A    between atoms: CB_113  and  OG_114 
REMARK   48  A    between atoms: N_117  and  CA_118 
REMARK   49  A    between atoms: CA_118  and  C_119 
REMARK   50  A    between atoms: CA_118  and  CB_121 
REMARK       I    between atoms: C_119  and  N_126 
REMARK   51  A    between atoms: CB_121  and  CG_122 
REMARK   52  A    between atoms: N_126  and  CA_127 
REMARK   53  A    between atoms: CA_127  and  C_128 
REMARK   54  A    between atoms: CA_127  and  CB_130 
REMARK       I    between atoms: C_128  and  N_138 
REMARK   55  A    between atoms: CB_130  and  CG_131 
REMARK   56  A    between atoms: N_138  and  CA_139 
REMARK   57  A    between atoms: CA_139  and  C_140 
REMARK       I    between atoms: C_140  and  N_143 
REMARK   58  A    between atoms: N_143  and  CA_144 
REMARK   59  A    between atoms: CA_144  and  C_145 
REMARK   60  A    between atoms: CA_144  and  CB_147 
REMARK   61  A    between atoms: CB_147  and  CG_148 
REMARK   62  A    between atoms: CG_148  and  CD_149 
REMARK   63  A    between atoms: CD_149  and  NE_150 
REMARK       I    between atoms: NE_150  and  CZ_151 
REMARK       I    between atoms: CZ_151  and  NH1_152 
ROOT
ATOM      1  N   PHE     1      62.970  41.946  47.286  1.00  0.00    -0.057 N 
ATOM      2  H1  PHE     1      62.338  41.169  47.245  1.00 99.99     0.276 HD
ATOM      3  H2  PHE     1      63.881  41.609  47.466  1.00 99.99     0.276 HD
ATOM      4  H3  PHE     1      62.746  42.512  48.066  1.00 99.99     0.276 HD
ENDROOT
BRANCH   1   5
ATOM      5  CA  PHE     1      62.881  42.675  45.996  1.00  0.00     0.259 C 
BRANCH   5   6
ATOM      6  C   PHE     1      62.314  41.776  44.872  1.00  0.00     0.259 C 
ATOM      7  O   PHE     1      62.416  42.124  43.696  1.00  0.00    -0.271 OA
ATOM      8  N   ILE     2      61.755  40.616  45.225  1.00  0.00    -0.338 N 
ATOM      9  H   ILE     2      61.717  40.293  46.169  1.00 99.99     0.164 HD
BRANCH   8  10
ATOM     10  CA  ILE     2      61.124  39.717  44.234  1.00  0.00     0.159 C 
BRANCH  10  11
ATOM     11  CB  ILE     2      61.356  38.231  44.592  1.00  0.00     0.029 C 
ATOM     12  CG2 ILE     2      62.649  37.708  43.937  1.00  0.00     0.002 C 
BRANCH  11  13
ATOM     13  CG1 ILE     2      61.412  38.050  46.121  1.00  0.00     0.002 C 
ATOM     14  CD  ILE     2      61.182  36.614  46.616  1.00  0.00     0.000 C 
ENDBRANCH  11  13
ENDBRANCH  10  11
BRANCH  10  15
ATOM     15  C   ILE     2      59.634  40.084  44.124  1.00  0.00     0.251 C 
ATOM     16  O   ILE     2      59.260  41.237  44.333  1.00  0.00    -0.271 OA
ATOM     17  N   PHE     3      58.843  39.107  43.681  1.00  0.00    -0.337 N 
ATOM     18  H   PHE     3      59.202  38.199  43.467  1.00 99.99     0.164 HD
BRANCH  17  19
ATOM     19  CA  PHE     3      57.397  39.285  43.441  1.00  0.00     0.164 C 
BRANCH  19  20
ATOM     20  C   PHE     3      56.547  39.349  44.728  1.00  0.00     0.254 C 
ATOM     21  O   PHE     3      56.198  40.454  45.153  1.00  0.00    -0.270 OA
ATOM     22  N   PRO     4      56.435  38.213  45.444  1.00  0.00    -0.312 N 
ATOM     23  CD  PRO     4      57.376  37.072  45.363  1.00  0.00     0.105 C 
ATOM     24  CA  PRO     4      55.509  37.977  46.575  1.00  0.00     0.163 C 
ATOM     25  CG  PRO     4      56.950  36.099  46.465  1.00  0.00     0.027 C 
ATOM     26  CB  PRO     4      56.268  37.007  47.484  1.00  0.00     0.034 C 
BRANCH  24  27
ATOM     27  C   PRO     4      54.850  39.153  47.321  1.00  0.00     0.251 C 
ATOM     28  O   PRO     4      53.668  39.413  47.111  1.00  0.00    -0.271 OA
ATOM     29  N   LYS     5      55.580  39.806  48.228  1.00  0.00    -0.338 N 
ATOM     30  H   LYS     5      56.563  39.659  48.307  1.00 99.99     0.164 HD
BRANCH  29  31
ATOM     31  CA  LYS     5      55.021  40.821  49.152  1.00  0.00     0.159 C 
BRANCH  31  32
ATOM     32  C   LYS     5      56.004  41.949  49.516  1.00  0.00     0.251 C 
ATOM     33  N   LYS     6      56.962  41.586  50.377  1.00  0.00    -0.338 N 
ATOM     34  H   LYS     6      56.929  40.688  50.813  1.00 99.99     0.164 HD
ATOM     35  O   LYS     5      56.034  42.981  48.846  1.00  0.00    -0.271 OA
BRANCH  33  36
ATOM     36  CA  LYS     6      58.039  42.463  50.900  1.00  0.00     0.159 C 
BRANCH  36  37
ATOM     37  CB  LYS     6      57.716  42.767  52.375  1.00  0.00     0.032 C 
BRANCH  37  38
ATOM     38  CG  LYS     6      56.957  41.653  53.105  1.00  0.00     0.004 C 
BRANCH  38  39
ATOM     39  CD  LYS     6      57.912  40.725  53.863  1.00  0.00     0.032 C 
BRANCH  39  40
ATOM     40  CE  LYS     6      57.298  40.270  55.191  1.00  0.00     0.206 C 
BRANCH  40  41
ATOM     41  NZ  LYS     6      57.332  38.807  55.342  1.00  0.00    -0.064 N 
ATOM     42  HZ2 LYS     6      57.305  38.567  56.313  1.00 99.99     0.275 HD
ATOM     43  HZ1 LYS     6      58.176  38.450  54.941  1.00 99.99     0.275 HD
ATOM     44  HZ3 LYS     6      56.548  38.397  54.876  1.00 99.99     0.275 HD
ENDBRANCH  40  41
ENDBRANCH  39  40
ENDBRANCH  38  39
ENDBRANCH  37  38
ENDBRANCH  36  37
BRANCH  36  45
ATOM     45  C   LYS     6      59.452  41.858  50.758  1.00  0.00     0.251 C 
ATOM     46  O   LYS     6      59.617  40.708  50.354  1.00  0.00    -0.271 OA
ATOM     47  N   ASN     7      60.432  42.601  51.264  1.00  0.00    -0.337 N 
ATOM     48  H   ASN     7      60.272  43.558  51.506  1.00 99.99     0.164 HD
BRANCH  47  49
ATOM     49  CA  ASN     7      61.860  42.223  51.259  1.00  0.00     0.169 C 
BRANCH  49  50
ATOM     50  C   ASN     7      62.295  41.557  52.580  1.00  0.00     0.251 C 
ATOM     51  O   ASN     7      62.034  42.102  53.651  1.00  0.00    -0.271 OA
ATOM     52  N   ILE     8      63.193  40.576  52.470  1.00  0.00    -0.338 N 
ATOM     53  H   ILE     8      63.659  40.398  51.605  1.00 99.99     0.164 HD
BRANCH  52  54
ATOM     54  CA  ILE     8      63.702  39.780  53.612  1.00  0.00     0.159 C 
BRANCH  54  55
ATOM     55  C   ILE     8      65.213  39.489  53.478  1.00  0.00     0.251 C 
ATOM     56  O   ILE     8      65.984  39.960  54.313  1.00  0.00    -0.271 OA
ATOM     57  N   ILE     9      65.624  38.825  52.395  1.00  0.00    -0.338 N 
ATOM     58  H   ILE     9      64.988  38.442  51.721  1.00 99.99     0.164 HD
BRANCH  57  59
ATOM     59  CA  ILE     9      67.059  38.567  52.123  1.00  0.00     0.159 C 
BRANCH  59  60
ATOM     60  C   ILE     9      67.530  39.090  50.748  1.00  0.00     0.251 C 
ATOM     61  O   ILE     9      66.836  39.895  50.130  1.00  0.00    -0.271 OA
ATOM     62  N   ASN    10      68.603  38.515  50.213  1.00  0.00    -0.337 N 
ATOM     63  H   ASN    10      69.163  37.843  50.701  1.00 99.99     0.164 HD
BRANCH  62  64
ATOM     64  CA  ASN    10      69.054  38.859  48.851  1.00  0.00     0.169 C 
BRANCH  64  65
ATOM     65  CB  ASN    10      70.574  38.727  48.730  1.00  0.00     0.119 C 
BRANCH  65  66
ATOM     66  CG  ASN    10      71.136  39.628  47.618  1.00  0.00     0.230 C 
ATOM     67  ND2 ASN    10      71.883  39.035  46.718  1.00  0.00    -0.369 N 
ATOM     68 1HD2 ASN    10      72.250  39.614  45.994  1.00 99.99     0.159 HD
ATOM     69 2HD2 ASN    10      72.051  38.057  46.758  1.00 99.99     0.159 HD
ATOM     70  OD1 ASN    10      70.861  40.813  47.499  1.00  0.00    -0.273 OA
ENDBRANCH  65  66
ENDBRANCH  64  65
BRANCH  64  71
ATOM     71  C   ASN    10      68.283  38.098  47.758  1.00  0.00     0.251 C 
ATOM     72  O   ASN    10      68.830  37.156  47.184  1.00  0.00    -0.271 OA
ATOM     73  N   SER    11      67.169  38.678  47.306  1.00  0.00    -0.336 N 
ATOM     74  H   SER    11      66.770  39.483  47.756  1.00 99.99     0.164 HD
BRANCH  73  75
ATOM     75  CA  SER    11      66.340  38.131  46.205  1.00  0.00     0.189 C 
BRANCH  75  76
ATOM     76  C   SER    11      65.559  39.205  45.428  1.00  0.00     0.253 C 
ATOM     77  N   LEU    12      66.036  39.528  44.225  1.00  0.00    -0.337 N 
ATOM     78  H   LEU    12      66.922  39.181  43.906  1.00 99.99     0.164 HD
ATOM     79  O   SER    11      64.573  39.735  45.933  1.00  0.00    -0.270 OA
BRANCH  77  80
ATOM     80  CA  LEU    12      65.393  40.492  43.306  1.00  0.00     0.159 C 
BRANCH  80  81
ATOM     81  C   LEU    12      64.731  39.924  42.040  1.00  0.00     0.251 C 
ATOM     82  O   LEU    12      65.075  38.820  41.619  1.00  0.00    -0.271 OA
ATOM     83  N   PHE    13      63.683  40.594  41.566  1.00  0.00    -0.337 N 
ATOM     84  H   PHE    13      63.290  41.374  42.052  1.00 99.99     0.164 HD
BRANCH  83  85
ATOM     85  CA  PHE    13      62.934  40.145  40.379  1.00  0.00     0.164 C 
BRANCH  85  86
ATOM     86  C   PHE    13      62.747  41.243  39.313  1.00  0.00     0.251 C 
ATOM     87  O   PHE    13      61.713  41.908  39.310  1.00  0.00    -0.271 OA
ATOM     88  N   GLY    14      63.683  41.321  38.354  1.00  0.00    -0.336 N 
ATOM     89  H   GLY    14      64.409  40.631  38.226  1.00 99.99     0.164 HD
BRANCH  88  90
ATOM     90  CA  GLY    14      63.710  42.414  37.360  1.00  0.00     0.189 C 
BRANCH  90  91
ATOM     91  C   GLY    14      62.583  42.221  36.336  1.00  0.00     0.253 C 
ATOM     92  N   ARG    15      61.549  43.045  36.477  1.00  0.00    -0.336 N 
ATOM     93  H   ARG    15      61.592  43.827  37.097  1.00 99.99     0.164 HD
ATOM     94  O   GLY    14      62.636  41.344  35.479  1.00  0.00    -0.270 OA
BRANCH  92  95
ATOM     95  CA  ARG    15      60.312  42.950  35.664  1.00  0.00     0.168 C 
BRANCH  95  96
ATOM     96  C   ARG    15      60.337  43.959  34.505  1.00  0.00     0.206 C 
ATOM     97  O   ARG    15      61.266  43.889  33.672  1.00 99.99    -0.646 OA
ATOM     98  OXT ARG    15      59.394  44.780  34.496  1.00 99.99    -0.646 OA
ENDBRANCH  95  96
BRANCH  95  99
ATOM     99  CB  ARG    15      59.084  43.289  36.518  1.00  0.00     0.035 C 
BRANCH  99 100
ATOM    100  CG  ARG    15      59.381  43.978  37.851  1.00  0.00     0.027 C 
BRANCH 100 101
ATOM    101  CD  ARG    15      58.791  43.247  39.053  1.00  0.00     0.116 C 
BRANCH 101 102
ATOM    102  NE  ARG    15      59.589  43.655  40.219  1.00  0.00    -0.212 N 
ATOM    103  CZ  ARG    15      59.415  43.270  41.483  1.00  0.00     0.666 C 
ATOM    104  NH2 ARG    15      60.360  43.532  42.372  1.00  0.00    -0.235 N 
ATOM    105  NH1 ARG    15      58.417  42.478  41.846  1.00  0.00    -0.235 N 
ATOM    106 1HH2 ARG    15      60.241  43.237  43.318  1.00 99.99     0.174 HD
ATOM    107 2HH2 ARG    15      61.203  43.980  42.085  1.00 99.99     0.174 HD
ATOM    108 2HH1 ARG    15      57.798  42.133  41.143  1.00 99.99     0.174 HD
ATOM    109 1HH1 ARG    15      58.316  42.191  42.796  1.00 99.99     0.174 HD
ATOM    110  HE  ARG    15      60.292  44.341  40.027  1.00 99.99     0.178 HD
ENDBRANCH 101 102
ENDBRANCH 100 101
ENDBRANCH  99 100
ENDBRANCH  95  99
ENDBRANCH  92  95
ENDBRANCH  90  91
ENDBRANCH  88  90
ENDBRANCH  85  86
BRANCH  85 111
ATOM    111  CB  PHE    13      61.594  39.569  40.857  1.00  0.00     0.056 C 
BRANCH 111 112
ATOM    112  CG  PHE    13      61.252  38.210  40.244  1.00  0.00    -0.044 A 
ATOM    113  CD2 PHE    13      60.677  37.237  41.048  1.00  0.00     0.008 A 
ATOM    114  CE2 PHE    13      60.375  35.986  40.531  1.00  0.00     0.001 A 
ATOM    115  CZ  PHE    13      60.647  35.705  39.198  1.00  0.00     0.000 A 
ATOM    116  CE1 PHE    13      61.219  36.679  38.387  1.00  0.00     0.001 A 
ATOM    117  CD1 PHE    13      61.530  37.930  38.909  1.00  0.00     0.008 A 
ENDBRANCH 111 112
ENDBRANCH  85 111
ENDBRANCH  83  85
ENDBRANCH  80  81
BRANCH  80 118
ATOM    118  CB  LEU    12      66.396  41.566  42.884  1.00  0.00     0.032 C 
BRANCH 118 119
ATOM    119  CG  LEU    12      67.848  41.197  43.191  1.00  0.00     0.002 C 
ATOM    120  CD2 LEU    12      68.458  42.100  44.270  1.00  0.00     0.000 C 
ATOM    121  CD1 LEU    12      68.641  41.357  41.903  1.00  0.00     0.000 C 
ENDBRANCH 118 119
ENDBRANCH  80 118
ENDBRANCH  77  80
ENDBRANCH  75  76
BRANCH  75 122
ATOM    122  CB  SER    11      65.330  37.109  46.738  1.00  0.00     0.169 C 
BRANCH 122 123
ATOM    123  OG  SER    11      65.834  36.457  47.908  1.00  0.00    -0.380 OA
ATOM    124  HG  SER    11      66.422  35.699  47.630  1.00 99.99     0.211 HD
ENDBRANCH 122 123
ENDBRANCH  75 122
ENDBRANCH  73  75
ENDBRANCH  64  71
ENDBRANCH  62  64
ENDBRANCH  59  60
BRANCH  59 125
ATOM    125  CB  ILE     9      67.474  37.103  52.423  1.00  0.00     0.029 C 
ATOM    126  CG2 ILE     9      68.381  36.974  53.651  1.00  0.00     0.002 C 
BRANCH 125 127
ATOM    127  CG1 ILE     9      66.290  36.132  52.576  1.00  0.00     0.002 C 
ATOM    128  CD  ILE     9      65.898  35.390  51.293  1.00  0.00     0.000 C 
ENDBRANCH 125 127
ENDBRANCH  59 125
ENDBRANCH  57  59
ENDBRANCH  54  55
BRANCH  54 129
ATOM    129  CB  ILE     8      62.847  38.507  53.813  1.00  0.00     0.029 C 
ATOM    130  CG2 ILE     8      62.549  37.814  52.471  1.00  0.00     0.002 C 
BRANCH 129 131
ATOM    131  CG1 ILE     8      63.568  37.533  54.766  1.00  0.00     0.002 C 
ATOM    132  CD  ILE     8      62.697  36.951  55.888  1.00  0.00     0.000 C 
ENDBRANCH 129 131
ENDBRANCH  54 129
ENDBRANCH  52  54
ENDBRANCH  49  50
BRANCH  49 133
ATOM    133  CB  ASN     7      62.700  43.478  50.971  1.00  0.00     0.119 C 
BRANCH 133 134
ATOM    134  CG  ASN     7      62.166  44.366  49.831  1.00  0.00     0.230 C 
ATOM    135  ND2 ASN     7      62.370  45.656  49.950  1.00  0.00    -0.369 N 
ATOM    136 1HD2 ASN     7      62.027  46.232  49.211  1.00 99.99     0.159 HD
ATOM    137 2HD2 ASN     7      62.833  46.038  50.745  1.00 99.99     0.159 HD
ATOM    138  OD1 ASN     7      61.462  43.949  48.920  1.00  0.00    -0.273 OA
ENDBRANCH 133 134
ENDBRANCH  49 133
ENDBRANCH  47  49
ENDBRANCH  36  45
ENDBRANCH  33  36
ENDBRANCH  31  32
BRANCH  31 139
ATOM    139  CB  LYS     5      54.506  40.150  50.432  1.00  0.00     0.032 C 
BRANCH 139 140
ATOM    140  CG  LYS     5      52.977  40.047  50.479  1.00  0.00     0.004 C 
BRANCH 140 141
ATOM    141  CD  LYS     5      52.512  38.598  50.306  1.00  0.00     0.032 C 
BRANCH 141 142
ATOM    142  CE  LYS     5      51.048  38.542  49.861  1.00  0.00     0.206 C 
BRANCH 142 143
ATOM    143  NZ  LYS     5      50.124  38.728  50.991  1.00  0.00    -0.064 N 
ATOM    144  HZ3 LYS     5      49.293  39.189  50.680  1.00 99.99     0.275 HD
ATOM    145  HZ1 LYS     5      49.879  37.834  51.369  1.00 99.99     0.275 HD
ATOM    146  HZ2 LYS     5      50.563  39.274  51.704  1.00 99.99     0.275 HD
ENDBRANCH 142 143
ENDBRANCH 141 142
ENDBRANCH 140 141
ENDBRANCH 139 140
ENDBRANCH  31 139
ENDBRANCH  29  31
ENDBRANCH  24  27
ENDBRANCH  19  20
BRANCH  19 147
ATOM    147  CB  PHE     3      56.872  38.167  42.527  1.00  0.00     0.056 C 
BRANCH 147 148
ATOM    148  CG  PHE     3      57.153  38.308  41.027  1.00  0.00    -0.044 A 
ATOM    149  CD2 PHE     3      57.671  39.524  40.606  1.00  0.00     0.008 A 
ATOM    150  CE2 PHE     3      58.039  39.727  39.285  1.00  0.00     0.001 A 
ATOM    151  CZ  PHE     3      57.905  38.697  38.365  1.00  0.00     0.000 A 
ATOM    152  CE1 PHE     3      57.392  37.474  38.774  1.00  0.00     0.001 A 
ATOM    153  CD1 PHE     3      57.023  37.273  40.099  1.00  0.00     0.008 A 
ENDBRANCH 147 148
ENDBRANCH  19 147
ENDBRANCH  17  19
ENDBRANCH  10  15
ENDBRANCH   8  10
ENDBRANCH   5   6
BRANCH   5 154
ATOM    154  CB  PHE     1      64.262  43.188  45.557  1.00  0.00     0.064 C 
BRANCH 154 155
ATOM    155  CG  PHE     1      65.166  43.578  46.727  1.00  0.00    -0.044 A 
ATOM    156  CD2 PHE     1      64.901  44.728  47.464  1.00  0.00     0.008 A 
ATOM    157  CE2 PHE     1      65.650  45.014  48.599  1.00  0.00     0.001 A 
ATOM    158  CZ  PHE     1      66.667  44.154  48.995  1.00  0.00     0.000 A 
ATOM    159  CE1 PHE     1      66.943  43.016  48.249  1.00  0.00     0.001 A 
ATOM    160  CD1 PHE     1      66.202  42.731  47.109  1.00  0.00     0.008 A 
ENDBRANCH 154 155
ENDBRANCH   5 154
ENDBRANCH   1   5
TORSDOF 63
ENDMDL
MODEL 6
REMARK VINA RESULT:      -3.1      3.229     11.090
REMARK WARNING: 32 MAX_TORS EXCEEDED!!!
REMARK  63 active torsions:
REMARK  status: ('A' for Active; 'I' for Inactive)
REMARK    1  A    between atoms: N_1  and  CA_2 
REMARK    2  A    between atoms: CA_2  and  C_3 
REMARK    3  A    between atoms: CA_2  and  CB_5 
REMARK       I    between atoms: C_3  and  N_15 
REMARK    4  A    between atoms: CB_5  and  CG_6 
REMARK    5  A    between atoms: N_15  and  CA_16 
REMARK    6  A    between atoms: CA_16  and  CB_19 
REMARK    7  A    between atoms: CA_16  and  C_17 
REMARK       I    between atoms: C_17  and  N_24 
REMARK    8  A    between atoms: CB_19  and  CG1_20 
REMARK    9  A    between atoms: N_24  and  CA_25 
REMARK   10  A    between atoms: CA_25  and  C_26 
REMARK   11  A    between atoms: CA_25  and  CB_28 
REMARK       I    between atoms: C_26  and  N_36 
REMARK   12  A    between atoms: CB_28  and  CG_29 
REMARK   13  A    between atoms: CA_37  and  C_38 
REMARK       I    between atoms: C_38  and  N_43 
REMARK   14  A    between atoms: N_43  and  CA_44 
REMARK   15  A    between atoms: CA_44  and  C_45 
REMARK   16  A    between atoms: CA_44  and  CB_47 
REMARK       I    between atoms: C_45  and  N_56 
REMARK   17  A    between atoms: CB_47  and  CG_48 
REMARK   18  A    between atoms: CG_48  and  CD_49 
REMARK   19  A    between atoms: CD_49  and  CE_50 
REMARK   20  A    between atoms: CE_50  and  NZ_51 
REMARK   21  A    between atoms: N_56  and  CA_57 
REMARK   22  A    between atoms: CA_57  and  CB_60 
REMARK   23  A    between atoms: CA_57  and  C_58 
REMARK       I    between atoms: C_58  and  N_69 
REMARK   24  A    between atoms: CB_60  and  CG_61 
REMARK   25  A    between atoms: CG_61  and  CD_62 
REMARK   26  A    between atoms: CD_62  and  CE_63 
REMARK   27  A    between atoms: CE_63  and  NZ_64 
REMARK   28  A    between atoms: N_69  and  CA_70 
REMARK   29  A    between atoms: CA_70  and  C_71 
REMARK   30  A    between atoms: CA_70  and  CB_73 
REMARK       I    between atoms: C_71  and  N_80 
REMARK   31  A    between atoms: CB_73  and  CG_74 
REMARK       I    between atoms: CG_74  and  ND2_76 
REMARK   32  A    between atoms: N_80  and  CA_81 
REMARK   33  A    between atoms: CA_81  and  C_82 
REMARK   34  A    between atoms: CA_81  and  CB_84 
REMARK       I    between atoms: C_82  and  N_89 
REMARK   35  A    between atoms: CB_84  and  CG1_85 
REMARK   36  A    between atoms: N_89  and  CA_90 
REMARK   37  A    between atoms: CA_90  and  C_91 
REMARK   38  A    between atoms: CA_90  and  CB_93 
REMARK       I    between atoms: C_91  and  N_98 
REMARK   39  A    between atoms: CB_93  and  CG1_94 
REMARK   40  A    between atoms: N_98  and  CA_99 
REMARK   41  A    between atoms: CA_99  and  CB_102 
REMARK   42  A    between atoms: CA_99  and  C_100 
REMARK       I    between atoms: C_100  and  N_109 
REMARK   43  A    between atoms: CB_102  and  CG_103 
REMARK       I    between atoms: CG_103  and  ND2_105 
REMARK   44  A    between atoms: N_109  and  CA_110 
REMARK   45  A    between atoms: CA_110  and  C_111 
REMARK   46  A    between atoms: CA_110  and  CB_113 
REMARK       I    between atoms: C_111  and  N_117 
REMARK   47  A    between atoms: CB_113  and  OG_114 
REMARK   48  A    between atoms: N_117  and  CA_118 
REMARK   49  A    between atoms: CA_118  and  C_119 
REMARK   50  A    between atoms: CA_118  and  CB_121 
REMARK       I    between atoms: C_119  and  N_126 
REMARK   51  A    between atoms: CB_121  and  CG_122 
REMARK   52  A    between atoms: N_126  and  CA_127 
REMARK   53  A    between atoms: CA_127  and  C_128 
REMARK   54  A    between atoms: CA_127  and  CB_130 
REMARK       I    between atoms: C_128  and  N_138 
REMARK   55  A    between atoms: CB_130  and  CG_131 
REMARK   56  A    between atoms: N_138  and  CA_139 
REMARK   57  A    between atoms: CA_139  and  C_140 
REMARK       I    between atoms: C_140  and  N_143 
REMARK   58  A    between atoms: N_143  and  CA_144 
REMARK   59  A    between atoms: CA_144  and  C_145 
REMARK   60  A    between atoms: CA_144  and  CB_147 
REMARK   61  A    between atoms: CB_147  and  CG_148 
REMARK   62  A    between atoms: CG_148  and  CD_149 
REMARK   63  A    between atoms: CD_149  and  NE_150 
REMARK       I    between atoms: NE_150  and  CZ_151 
REMARK       I    between atoms: CZ_151  and  NH1_152 
ROOT
ATOM      1  N   PHE     1      61.699  42.099  60.722  1.00  0.00    -0.057 N 
ATOM      2  H1  PHE     1      61.991  43.028  60.485  1.00 99.99     0.276 HD
ATOM      3  H2  PHE     1      60.913  42.152  61.320  1.00 99.99     0.276 HD
ATOM      4  H3  PHE     1      62.403  41.660  61.262  1.00 99.99     0.276 HD
ENDROOT
BRANCH   1   5
ATOM      5  CA  PHE     1      61.404  41.377  59.460  1.00  0.00     0.259 C 
BRANCH   5   6
ATOM      6  C   PHE     1      60.025  40.677  59.514  1.00  0.00     0.259 C 
ATOM      7  O   PHE     1      59.827  39.772  60.324  1.00  0.00    -0.271 OA
ATOM      8  N   ILE     2      59.073  41.114  58.686  1.00  0.00    -0.338 N 
ATOM      9  H   ILE     2      59.202  41.885  58.065  1.00 99.99     0.164 HD
BRANCH   8  10
ATOM     10  CA  ILE     2      57.744  40.470  58.612  1.00  0.00     0.159 C 
BRANCH  10  11
ATOM     11  CB  ILE     2      56.666  41.313  59.332  1.00  0.00     0.029 C 
ATOM     12  CG2 ILE     2      56.457  40.814  60.774  1.00  0.00     0.002 C 
BRANCH  11  13
ATOM     13  CG1 ILE     2      57.060  42.803  59.327  1.00  0.00     0.002 C 
ATOM     14  CD  ILE     2      56.733  43.567  60.618  1.00  0.00     0.000 C 
ENDBRANCH  11  13
ENDBRANCH  10  11
BRANCH  10  15
ATOM     15  C   ILE     2      57.413  40.207  57.133  1.00  0.00     0.251 C 
ATOM     16  O   ILE     2      56.297  40.471  56.688  1.00  0.00    -0.271 OA
ATOM     17  N   PHE     3      58.441  39.800  56.388  1.00  0.00    -0.337 N 
ATOM     18  H   PHE     3      59.348  39.655  56.782  1.00 99.99     0.164 HD
BRANCH  17  19
ATOM     19  CA  PHE     3      58.340  39.563  54.934  1.00  0.00     0.164 C 
BRANCH  19  20
ATOM     20  C   PHE     3      59.274  38.451  54.410  1.00  0.00     0.254 C 
ATOM     21  O   PHE     3      59.649  38.496  53.236  1.00  0.00    -0.270 OA
ATOM     22  N   PRO     4      59.435  37.368  55.196  1.00  0.00    -0.312 N 
ATOM     23  CD  PRO     4      58.493  36.954  56.262  1.00  0.00     0.105 C 
ATOM     24  CA  PRO     4      60.435  36.292  55.012  1.00  0.00     0.163 C 
ATOM     25  CG  PRO     4      58.993  35.596  56.759  1.00  0.00     0.027 C 
ATOM     26  CB  PRO     4      59.740  35.039  55.551  1.00  0.00     0.034 C 
BRANCH  24  27
ATOM     27  C   PRO     4      61.141  36.086  53.658  1.00  0.00     0.251 C 
ATOM     28  O   PRO     4      60.700  35.255  52.869  1.00  0.00    -0.271 OA
ATOM     29  N   LYS     5      62.176  36.878  53.366  1.00  0.00    -0.338 N 
ATOM     30  H   LYS     5      62.591  37.466  54.055  1.00 99.99     0.164 HD
BRANCH  29  31
ATOM     31  CA  LYS     5      62.820  36.924  52.032  1.00  0.00     0.159 C 
BRANCH  31  32
ATOM     32  C   LYS     5      64.283  37.401  52.056  1.00  0.00     0.251 C 
ATOM     33  N   LYS     6      64.492  38.495  52.798  1.00  0.00    -0.338 N 
ATOM     34  H   LYS     6      63.717  38.995  53.183  1.00 99.99     0.164 HD
ATOM     35  O   LYS     5      65.180  36.662  51.649  1.00  0.00    -0.271 OA
BRANCH  33  36
ATOM     36  CA  LYS     6      65.797  39.173  53.001  1.00  0.00     0.159 C 
BRANCH  36  37
ATOM     37  CB  LYS     6      66.545  38.420  54.117  1.00  0.00     0.032 C 
BRANCH  37  38
ATOM     38  CG  LYS     6      66.390  39.033  55.514  1.00  0.00     0.004 C 
BRANCH  38  39
ATOM     39  CD  LYS     6      65.242  38.379  56.291  1.00  0.00     0.032 C 
BRANCH  39  40
ATOM     40  CE  LYS     6      65.777  37.517  57.439  1.00  0.00     0.206 C 
BRANCH  40  41
ATOM     41  NZ  LYS     6      67.123  37.935  57.861  1.00  0.00    -0.064 N 
ATOM     42  HZ2 LYS     6      67.359  37.491  58.727  1.00 99.99     0.275 HD
ATOM     43  HZ1 LYS     6      67.140  38.927  57.989  1.00 99.99     0.275 HD
ATOM     44  HZ3 LYS     6      67.794  37.682  57.164  1.00 99.99     0.275 HD
ENDBRANCH  40  41
ENDBRANCH  39  40
ENDBRANCH  38  39
ENDBRANCH  37  38
ENDBRANCH  36  37
BRANCH  36  45
ATOM     45  C   LYS     6      66.655  39.254  51.720  1.00  0.00     0.251 C 
ATOM     46  O   LYS     6      67.867  39.046  51.746  1.00  0.00    -0.271 OA
ATOM     47  N   ASN     7      66.020  39.729  50.651  1.00  0.00    -0.337 N 
ATOM     48  H   ASN     7      65.023  39.807  50.645  1.00 99.99     0.164 HD
BRANCH  47  49
ATOM     49  CA  ASN     7      66.636  39.912  49.322  1.00  0.00     0.169 C 
BRANCH  49  50
ATOM     50  C   ASN     7      66.336  41.300  48.722  1.00  0.00     0.251 C 
ATOM     51  O   ASN     7      67.220  42.153  48.691  1.00  0.00    -0.271 OA
ATOM     52  N   ILE     8      65.046  41.592  48.544  1.00  0.00    -0.338 N 
ATOM     53  H   ILE     8      64.328  41.007  48.920  1.00 99.99     0.164 HD
BRANCH  52  54
ATOM     54  CA  ILE     8      64.551  42.850  47.938  1.00  0.00     0.159 C 
BRANCH  54  55
ATOM     55  C   ILE     8      65.117  43.061  46.515  1.00  0.00     0.251 C 
ATOM     56  O   ILE     8      64.618  43.930  45.801  1.00  0.00    -0.271 OA
ATOM     57  N   ILE     9      66.054  42.212  46.088  1.00  0.00    -0.338 N 
ATOM     58  H   ILE     9      66.457  41.509  46.678  1.00 99.99     0.164 HD
BRANCH  57  59
ATOM     59  CA  ILE     9      66.604  42.268  44.712  1.00  0.00     0.159 C 
BRANCH  59  60
ATOM     60  C   ILE     9      65.810  41.419  43.695  1.00  0.00     0.251 C 
ATOM     61  O   ILE     9      66.371  40.989  42.689  1.00  0.00    -0.271 OA
ATOM     62  N   ASN    10      64.496  41.325  43.874  1.00  0.00    -0.337 N 
ATOM     63  H   ASN    10      64.028  41.690  44.681  1.00 99.99     0.164 HD
BRANCH  62  64
ATOM     64  CA  ASN    10      63.638  40.642  42.887  1.00  0.00     0.169 C 
BRANCH  64  65
ATOM     65  CB  ASN    10      63.116  39.315  43.444  1.00  0.00     0.119 C 
BRANCH  65  66
ATOM     66  CG  ASN    10      64.227  38.518  44.147  1.00  0.00     0.230 C 
ATOM     67  ND2 ASN    10      65.092  37.919  43.363  1.00  0.00    -0.369 N 
ATOM     68 1HD2 ASN    10      65.816  37.402  43.813  1.00 99.99     0.159 HD
ATOM     69 2HD2 ASN    10      65.028  38.001  42.375  1.00 99.99     0.159 HD
ATOM     70  OD1 ASN    10      64.379  38.487  45.360  1.00  0.00    -0.273 OA
ENDBRANCH  65  66
ENDBRANCH  64  65
BRANCH  64  71
ATOM     71  C   ASN    10      62.529  41.551  42.330  1.00  0.00     0.251 C 
ATOM     72  O   ASN    10      62.146  42.510  43.001  1.00  0.00    -0.271 OA
ATOM     73  N   SER    11      61.857  41.088  41.274  1.00  0.00    -0.336 N 
ATOM     74  H   SER    11      62.154  40.268  40.775  1.00 99.99     0.164 HD
BRANCH  73  75
ATOM     75  CA  SER    11      60.708  41.789  40.652  1.00  0.00     0.189 C 
BRANCH  75  76
ATOM     76  C   SER    11      59.341  41.330  41.187  1.00  0.00     0.253 C 
ATOM     77  N   LEU    12      59.177  40.015  41.336  1.00  0.00    -0.337 N 
ATOM     78  H   LEU    12      59.860  39.362  40.997  1.00 99.99     0.164 HD
ATOM     79  O   SER    11      58.464  42.156  41.424  1.00  0.00    -0.270 OA
BRANCH  77  80
ATOM     80  CA  LEU    12      57.958  39.385  41.892  1.00  0.00     0.159 C 
BRANCH  80  81
ATOM     81  C   LEU    12      57.769  39.441  43.416  1.00  0.00     0.251 C 
ATOM     82  O   LEU    12      58.214  38.532  44.116  1.00  0.00    -0.271 OA
ATOM     83  N   PHE    13      57.280  40.575  43.912  1.00  0.00    -0.337 N 
ATOM     84  H   PHE    13      57.125  41.379  43.341  1.00 99.99     0.164 HD
BRANCH  83  85
ATOM     85  CA  PHE    13      57.077  40.778  45.358  1.00  0.00     0.164 C 
BRANCH  85  86
ATOM     86  C   PHE    13      55.635  40.499  45.826  1.00  0.00     0.251 C 
ATOM     87  O   PHE    13      54.709  40.620  45.025  1.00  0.00    -0.271 OA
ATOM     88  N   GLY    14      55.459  40.265  47.136  1.00  0.00    -0.336 N 
ATOM     89  H   GLY    14      56.183  40.390  47.828  1.00 99.99     0.164 HD
BRANCH  88  90
ATOM     90  CA  GLY    14      54.159  39.840  47.697  1.00  0.00     0.189 C 
BRANCH  90  91
ATOM     91  C   GLY    14      53.901  40.557  49.029  1.00  0.00     0.253 C 
ATOM     92  N   ARG    15      54.918  41.283  49.482  1.00  0.00    -0.336 N 
ATOM     93  H   ARG    15      55.714  41.471  48.910  1.00 99.99     0.164 HD
ATOM     94  O   GLY    14      52.840  40.429  49.633  1.00  0.00    -0.270 OA
BRANCH  92  95
ATOM     95  CA  ARG    15      54.913  41.961  50.802  1.00  0.00     0.168 C 
BRANCH  95  96
ATOM     96  C   ARG    15      55.422  43.405  50.679  1.00  0.00     0.206 C 
ATOM     97  O   ARG    15      55.413  44.131  51.697  1.00 99.99    -0.646 OA
ATOM     98  OXT ARG    15      55.820  43.734  49.539  1.00 99.99    -0.646 OA
ENDBRANCH  95  96
BRANCH  95  99
ATOM     99  CB  ARG    15      55.856  41.242  51.775  1.00  0.00     0.035 C 
BRANCH  99 100
ATOM    100  CG  ARG    15      55.177  40.564  52.966  1.00  0.00     0.027 C 
BRANCH 100 101
ATOM    101  CD  ARG    15      54.454  39.274  52.595  1.00  0.00     0.116 C 
BRANCH 101 102
ATOM    102  NE  ARG    15      53.023  39.607  52.521  1.00  0.00    -0.212 N 
ATOM    103  CZ  ARG    15      52.016  38.947  53.091  1.00  0.00     0.666 C 
ATOM    104  NH2 ARG    15      50.818  39.508  53.131  1.00  0.00    -0.235 N 
ATOM    105  NH1 ARG    15      52.206  37.829  53.778  1.00  0.00    -0.235 N 
ATOM    106 1HH2 ARG    15      50.062  39.024  53.566  1.00 99.99     0.174 HD
ATOM    107 2HH2 ARG    15      50.687  40.428  52.769  1.00 99.99     0.174 HD
ATOM    108 2HH1 ARG    15      53.138  37.494  53.899  1.00 99.99     0.174 HD
ATOM    109 1HH1 ARG    15      51.438  37.362  54.209  1.00 99.99     0.174 HD
ATOM    110  HE  ARG    15      52.803  40.378  51.923  1.00 99.99     0.178 HD
ENDBRANCH 101 102
ENDBRANCH 100 101
ENDBRANCH  99 100
ENDBRANCH  95  99
ENDBRANCH  92  95
ENDBRANCH  90  91
ENDBRANCH  88  90
ENDBRANCH  85  86
BRANCH  85 111
ATOM    111  CB  PHE    13      57.532  42.202  45.703  1.00  0.00     0.056 C 
BRANCH 111 112
ATOM    112  CG  PHE    13      58.693  42.256  46.697  1.00  0.00    -0.044 A 
ATOM    113  CD2 PHE    13      59.950  42.623  46.241  1.00  0.00     0.008 A 
ATOM    114  CE2 PHE    13      61.031  42.660  47.110  1.00  0.00     0.001 A 
ATOM    115  CZ  PHE    13      60.853  42.331  48.448  1.00  0.00     0.000 A 
ATOM    116  CE1 PHE    13      59.593  41.966  48.911  1.00  0.00     0.001 A 
ATOM    117  CD1 PHE    13      58.513  41.920  48.036  1.00  0.00     0.008 A 
ENDBRANCH 111 112
ENDBRANCH  85 111
ENDBRANCH  83  85
ENDBRANCH  80  81
BRANCH  80 118
ATOM    118  CB  LEU    12      57.871  37.925  41.448  1.00  0.00     0.032 C 
BRANCH 118 119
ATOM    119  CG  LEU    12      56.597  37.601  40.667  1.00  0.00     0.002 C 
ATOM    120  CD2 LEU    12      55.967  38.852  40.045  1.00  0.00     0.000 C 
ATOM    121  CD1 LEU    12      55.608  36.981  41.644  1.00  0.00     0.000 C 
ENDBRANCH 118 119
ENDBRANCH  80 118
ENDBRANCH  77  80
ENDBRANCH  75  76
BRANCH  75 122
ATOM    122  CB  SER    11      60.708  41.592  39.132  1.00  0.00     0.169 C 
BRANCH 122 123
ATOM    123  OG  SER    11      59.371  41.541  38.625  1.00  0.00    -0.380 OA
ATOM    124  HG  SER    11      58.767  41.184  39.337  1.00 99.99     0.211 HD
ENDBRANCH 122 123
ENDBRANCH  75 122
ENDBRANCH  73  75
ENDBRANCH  64  71
ENDBRANCH  62  64
ENDBRANCH  59  60
BRANCH  59 125
ATOM    125  CB  ILE     9      68.138  42.044  44.667  1.00  0.00     0.029 C 
ATOM    126  CG2 ILE     9      68.931  43.174  45.333  1.00  0.00     0.002 C 
BRANCH 125 127
ATOM    127  CG1 ILE     9      68.595  40.699  45.260  1.00  0.00     0.002 C 
ATOM    128  CD  ILE     9      69.564  40.815  46.442  1.00  0.00     0.000 C 
ENDBRANCH 125 127
ENDBRANCH  59 125
ENDBRANCH  57  59
ENDBRANCH  54  55
BRANCH  54 129
ATOM    129  CB  ILE     8      64.806  44.048  48.882  1.00  0.00     0.029 C 
ATOM    130  CG2 ILE     8      65.824  45.031  48.279  1.00  0.00     0.002 C 
BRANCH 129 131
ATOM    131  CG1 ILE     8      63.479  44.773  49.183  1.00  0.00     0.002 C 
ATOM    132  CD  ILE     8      63.034  44.741  50.652  1.00  0.00     0.000 C 
ENDBRANCH 129 131
ENDBRANCH  54 129
ENDBRANCH  52  54
ENDBRANCH  49  50
BRANCH  49 133
ATOM    133  CB  ASN     7      66.142  38.791  48.392  1.00  0.00     0.119 C 
BRANCH 133 134
ATOM    134  CG  ASN     7      67.258  37.985  47.701  1.00  0.00     0.230 C 
ATOM    135  ND2 ASN     7      66.936  37.381  46.582  1.00  0.00    -0.369 N 
ATOM    136 1HD2 ASN     7      67.658  36.860  46.132  1.00 99.99     0.159 HD
ATOM    137 2HD2 ASN     7      66.013  37.431  46.211  1.00 99.99     0.159 HD
ATOM    138  OD1 ASN     7      68.354  37.775  48.205  1.00  0.00    -0.273 OA
ENDBRANCH 133 134
ENDBRANCH  49 133
ENDBRANCH  47  49
ENDBRANCH  36  45
ENDBRANCH  33  36
ENDBRANCH  31  32
BRANCH  31 139
ATOM    139  CB  LYS     5      62.003  37.805  51.076  1.00  0.00     0.032 C 
BRANCH 139 140
ATOM    140  CG  LYS     5      62.699  38.029  49.729  1.00  0.00     0.004 C 
BRANCH 140 141
ATOM    141  CD  LYS     5      61.789  38.780  48.752  1.00  0.00     0.032 C 
BRANCH 141 142
ATOM    142  CE  LYS     5      61.138  37.815  47.758  1.00  0.00     0.206 C 
BRANCH 142 143
ATOM    143  NZ  LYS     5      62.135  37.159  46.897  1.00  0.00    -0.064 N 
ATOM    144  HZ3 LYS     5      62.915  36.859  47.447  1.00 99.99     0.275 HD
ATOM    145  HZ1 LYS     5      61.719  36.361  46.458  1.00 99.99     0.275 HD
ATOM    146  HZ2 LYS     5      62.447  37.795  46.191  1.00 99.99     0.275 HD
ENDBRANCH 142 143
ENDBRANCH 141 142
ENDBRANCH 140 141
ENDBRANCH 139 140
ENDBRANCH  31 139
ENDBRANCH  29  31
ENDBRANCH  24  27
ENDBRANCH  19  20
BRANCH  19 147
ATOM    147  CB  PHE     3      58.605  40.867  54.167  1.00  0.00     0.056 C 
BRANCH 147 148
ATOM    148  CG  PHE     3      60.050  41.134  53.728  1.00  0.00    -0.044 A 
ATOM    149  CD2 PHE     3      61.038  40.881  54.667  1.00  0.00     0.008 A 
ATOM    150  CE2 PHE     3      62.381  41.009  54.346  1.00  0.00     0.001 A 
ATOM    151  CZ  PHE     3      62.751  41.380  53.063  1.00  0.00     0.000 A 
ATOM    152  CE1 PHE     3      61.772  41.632  52.111  1.00  0.00     0.001 A 
ATOM    153  CD1 PHE     3      60.426  41.504  52.436  1.00  0.00     0.008 A 
ENDBRANCH 147 148
ENDBRANCH  19 147
ENDBRANCH  17  19
ENDBRANCH  10  15
ENDBRANCH   8  10
ENDBRANCH   5   6
BRANCH   5 154
ATOM    154  CB  PHE     1      62.477  40.315  59.169  1.00  0.00     0.064 C 
BRANCH 154 155
ATOM    155  CG  PHE     1      63.766  40.896  58.587  1.00  0.00    -0.044 A 
ATOM    156  CD2 PHE     1      63.725  41.677  57.437  1.00  0.00     0.008 A 
ATOM    157  CE2 PHE     1      64.879  42.303  56.981  1.00  0.00     0.001 A 
ATOM    158  CZ  PHE     1      66.075  42.144  57.671  1.00  0.00     0.000 A 
ATOM    159  CE1 PHE     1      66.119  41.348  58.809  1.00  0.00     0.001 A 
ATOM    160  CD1 PHE     1      64.969  40.715  59.262  1.00  0.00     0.008 A 
ENDBRANCH 154 155
ENDBRANCH   5 154
ENDBRANCH   1   5
TORSDOF 63
ENDMDL
MODEL 7
REMARK VINA RESULT:      -3.0      2.368     11.976
REMARK WARNING: 32 MAX_TORS EXCEEDED!!!
REMARK  63 active torsions:
REMARK  status: ('A' for Active; 'I' for Inactive)
REMARK    1  A    between atoms: N_1  and  CA_2 
REMARK    2  A    between atoms: CA_2  and  C_3 
REMARK    3  A    between atoms: CA_2  and  CB_5 
REMARK       I    between atoms: C_3  and  N_15 
REMARK    4  A    between atoms: CB_5  and  CG_6 
REMARK    5  A    between atoms: N_15  and  CA_16 
REMARK    6  A    between atoms: CA_16  and  CB_19 
REMARK    7  A    between atoms: CA_16  and  C_17 
REMARK       I    between atoms: C_17  and  N_24 
REMARK    8  A    between atoms: CB_19  and  CG1_20 
REMARK    9  A    between atoms: N_24  and  CA_25 
REMARK   10  A    between atoms: CA_25  and  C_26 
REMARK   11  A    between atoms: CA_25  and  CB_28 
REMARK       I    between atoms: C_26  and  N_36 
REMARK   12  A    between atoms: CB_28  and  CG_29 
REMARK   13  A    between atoms: CA_37  and  C_38 
REMARK       I    between atoms: C_38  and  N_43 
REMARK   14  A    between atoms: N_43  and  CA_44 
REMARK   15  A    between atoms: CA_44  and  C_45 
REMARK   16  A    between atoms: CA_44  and  CB_47 
REMARK       I    between atoms: C_45  and  N_56 
REMARK   17  A    between atoms: CB_47  and  CG_48 
REMARK   18  A    between atoms: CG_48  and  CD_49 
REMARK   19  A    between atoms: CD_49  and  CE_50 
REMARK   20  A    between atoms: CE_50  and  NZ_51 
REMARK   21  A    between atoms: N_56  and  CA_57 
REMARK   22  A    between atoms: CA_57  and  CB_60 
REMARK   23  A    between atoms: CA_57  and  C_58 
REMARK       I    between atoms: C_58  and  N_69 
REMARK   24  A    between atoms: CB_60  and  CG_61 
REMARK   25  A    between atoms: CG_61  and  CD_62 
REMARK   26  A    between atoms: CD_62  and  CE_63 
REMARK   27  A    between atoms: CE_63  and  NZ_64 
REMARK   28  A    between atoms: N_69  and  CA_70 
REMARK   29  A    between atoms: CA_70  and  C_71 
REMARK   30  A    between atoms: CA_70  and  CB_73 
REMARK       I    between atoms: C_71  and  N_80 
REMARK   31  A    between atoms: CB_73  and  CG_74 
REMARK       I    between atoms: CG_74  and  ND2_76 
REMARK   32  A    between atoms: N_80  and  CA_81 
REMARK   33  A    between atoms: CA_81  and  C_82 
REMARK   34  A    between atoms: CA_81  and  CB_84 
REMARK       I    between atoms: C_82  and  N_89 
REMARK   35  A    between atoms: CB_84  and  CG1_85 
REMARK   36  A    between atoms: N_89  and  CA_90 
REMARK   37  A    between atoms: CA_90  and  C_91 
REMARK   38  A    between atoms: CA_90  and  CB_93 
REMARK       I    between atoms: C_91  and  N_98 
REMARK   39  A    between atoms: CB_93  and  CG1_94 
REMARK   40  A    between atoms: N_98  and  CA_99 
REMARK   41  A    between atoms: CA_99  and  CB_102 
REMARK   42  A    between atoms: CA_99  and  C_100 
REMARK       I    between atoms: C_100  and  N_109 
REMARK   43  A    between atoms: CB_102  and  CG_103 
REMARK       I    between atoms: CG_103  and  ND2_105 
REMARK   44  A    between atoms: N_109  and  CA_110 
REMARK   45  A    between atoms: CA_110  and  C_111 
REMARK   46  A    between atoms: CA_110  and  CB_113 
REMARK       I    between atoms: C_111  and  N_117 
REMARK   47  A    between atoms: CB_113  and  OG_114 
REMARK   48  A    between atoms: N_117  and  CA_118 
REMARK   49  A    between atoms: CA_118  and  C_119 
REMARK   50  A    between atoms: CA_118  and  CB_121 
REMARK       I    between atoms: C_119  and  N_126 
REMARK   51  A    between atoms: CB_121  and  CG_122 
REMARK   52  A    between atoms: N_126  and  CA_127 
REMARK   53  A    between atoms: CA_127  and  C_128 
REMARK   54  A    between atoms: CA_127  and  CB_130 
REMARK       I    between atoms: C_128  and  N_138 
REMARK   55  A    between atoms: CB_130  and  CG_131 
REMARK   56  A    between atoms: N_138  and  CA_139 
REMARK   57  A    between atoms: CA_139  and  C_140 
REMARK       I    between atoms: C_140  and  N_143 
REMARK   58  A    between atoms: N_143  and  CA_144 
REMARK   59  A    between atoms: CA_144  and  C_145 
REMARK   60  A    between atoms: CA_144  and  CB_147 
REMARK   61  A    between atoms: CB_147  and  CG_148 
REMARK   62  A    between atoms: CG_148  and  CD_149 
REMARK   63  A    between atoms: CD_149  and  NE_150 
REMARK       I    between atoms: NE_150  and  CZ_151 
REMARK       I    between atoms: CZ_151  and  NH1_152 
ROOT
ATOM      1  N   PHE     1      62.779  37.427  49.203  1.00  0.00    -0.057 N 
ATOM      2  H1  PHE     1      63.223  36.883  49.919  1.00 99.99     0.276 HD
ATOM      3  H2  PHE     1      61.800  37.399  49.339  1.00 99.99     0.276 HD
ATOM      4  H3  PHE     1      62.929  36.999  48.323  1.00 99.99     0.276 HD
ENDROOT
BRANCH   1   5
ATOM      5  CA  PHE     1      63.322  38.806  49.275  1.00  0.00     0.259 C 
BRANCH   5   6
ATOM      6  C   PHE     1      64.762  38.882  48.715  1.00  0.00     0.259 C 
ATOM      7  O   PHE     1      64.986  38.550  47.552  1.00  0.00    -0.271 OA
ATOM      8  N   ILE     2      65.719  39.348  49.520  1.00  0.00    -0.338 N 
ATOM      9  H   ILE     2      65.542  39.675  50.447  1.00 99.99     0.164 HD
BRANCH   8  10
ATOM     10  CA  ILE     2      67.137  39.397  49.103  1.00  0.00     0.159 C 
BRANCH  10  11
ATOM     11  CB  ILE     2      67.638  38.012  48.636  1.00  0.00     0.029 C 
ATOM     12  CG2 ILE     2      69.148  38.051  48.332  1.00  0.00     0.002 C 
BRANCH  11  13
ATOM     13  CG1 ILE     2      67.328  36.942  49.701  1.00  0.00     0.002 C 
ATOM     14  CD  ILE     2      67.915  37.220  51.092  1.00  0.00     0.000 C 
ENDBRANCH  11  13
ENDBRANCH  10  11
BRANCH  10  15
ATOM     15  C   ILE     2      67.290  40.487  48.028  1.00  0.00     0.251 C 
ATOM     16  O   ILE     2      67.442  41.664  48.351  1.00  0.00    -0.271 OA
ATOM     17  N   PHE     3      67.362  40.037  46.775  1.00  0.00    -0.337 N 
ATOM     18  H   PHE     3      67.293  39.063  46.563  1.00 99.99     0.164 HD
BRANCH  17  19
ATOM     19  CA  PHE     3      67.580  40.920  45.611  1.00  0.00     0.164 C 
BRANCH  19  20
ATOM     20  C   PHE     3      66.530  40.757  44.491  1.00  0.00     0.254 C 
ATOM     21  O   PHE     3      66.874  40.233  43.429  1.00  0.00    -0.270 OA
ATOM     22  N   PRO     4      65.361  41.409  44.649  1.00  0.00    -0.312 N 
ATOM     23  CD  PRO     4      65.164  42.579  45.536  1.00  0.00     0.105 C 
ATOM     24  CA  PRO     4      64.140  41.230  43.830  1.00  0.00     0.163 C 
ATOM     25  CG  PRO     4      63.744  43.078  45.260  1.00  0.00     0.027 C 
ATOM     26  CB  PRO     4      63.485  42.614  43.830  1.00  0.00     0.034 C 
BRANCH  24  27
ATOM     27  C   PRO     4      64.204  40.564  42.443  1.00  0.00     0.251 C 
ATOM     28  O   PRO     4      63.723  39.445  42.290  1.00  0.00    -0.271 OA
ATOM     29  N   LYS     5      64.727  41.267  41.435  1.00  0.00    -0.338 N 
ATOM     30  H   LYS     5      65.212  42.122  41.596  1.00 99.99     0.164 HD
BRANCH  29  31
ATOM     31  CA  LYS     5      64.674  40.831  40.020  1.00  0.00     0.159 C 
BRANCH  31  32
ATOM     32  C   LYS     5      63.247  40.648  39.471  1.00  0.00     0.251 C 
ATOM     33  N   LYS     6      62.641  41.789  39.125  1.00  0.00    -0.338 N 
ATOM     34  H   LYS     6      63.067  42.668  39.338  1.00 99.99     0.164 HD
ATOM     35  O   LYS     5      62.852  39.530  39.141  1.00  0.00    -0.271 OA
BRANCH  33  36
ATOM     36  CA  LYS     6      61.269  41.912  38.571  1.00  0.00     0.159 C 
BRANCH  36  37
ATOM     37  CB  LYS     6      61.246  41.179  37.217  1.00  0.00     0.032 C 
BRANCH  37  38
ATOM     38  CG  LYS     6      61.222  42.101  35.992  1.00  0.00     0.004 C 
BRANCH  38  39
ATOM     39  CD  LYS     6      61.728  43.507  36.335  1.00  0.00     0.032 C 
BRANCH  39  40
ATOM     40  CE  LYS     6      61.843  44.371  35.076  1.00  0.00     0.206 C 
BRANCH  40  41
ATOM     41  NZ  LYS     6      60.629  45.171  34.844  1.00  0.00    -0.064 N 
ATOM     42  HZ2 LYS     6      60.864  46.000  34.334  1.00 99.99     0.275 HD
ATOM     43  HZ1 LYS     6      60.228  45.432  35.722  1.00 99.99     0.275 HD
ATOM     44  HZ3 LYS     6      59.963  44.637  34.323  1.00 99.99     0.275 HD
ENDBRANCH  40  41
ENDBRANCH  39  40
ENDBRANCH  38  39
ENDBRANCH  37  38
ENDBRANCH  36  37
BRANCH  36  45
ATOM     45  C   LYS     6      60.173  41.369  39.512  1.00  0.00     0.251 C 
ATOM     46  O   LYS     6      59.004  41.267  39.143  1.00  0.00    -0.271 OA
ATOM     47  N   ASN     7      60.556  41.194  40.774  1.00  0.00    -0.337 N 
ATOM     48  H   ASN     7      61.526  41.206  41.017  1.00 99.99     0.164 HD
BRANCH  47  49
ATOM     49  CA  ASN     7      59.681  40.700  41.856  1.00  0.00     0.169 C 
BRANCH  49  50
ATOM     50  C   ASN     7      58.774  39.542  41.395  1.00  0.00     0.251 C 
ATOM     51  O   ASN     7      59.280  38.488  41.014  1.00  0.00    -0.271 OA
ATOM     52  N   ILE     8      57.500  39.859  41.153  1.00  0.00    -0.338 N 
ATOM     53  H   ILE     8      57.202  40.812  41.127  1.00 99.99     0.164 HD
BRANCH  52  54
ATOM     54  CA  ILE     8      56.460  38.884  40.750  1.00  0.00     0.159 C 
BRANCH  54  55
ATOM     55  C   ILE     8      55.950  38.060  41.953  1.00  0.00     0.251 C 
ATOM     56  O   ILE     8      54.742  38.032  42.183  1.00  0.00    -0.271 OA
ATOM     57  N   ILE     9      56.861  37.503  42.754  1.00  0.00    -0.338 N 
ATOM     58  H   ILE     9      57.844  37.528  42.557  1.00 99.99     0.164 HD
BRANCH  57  59
ATOM     59  CA  ILE     9      56.486  36.765  43.985  1.00  0.00     0.159 C 
BRANCH  59  60
ATOM     60  C   ILE     9      56.827  37.521  45.287  1.00  0.00     0.251 C 
ATOM     61  O   ILE     9      55.963  37.673  46.149  1.00  0.00    -0.271 OA
ATOM     62  N   ASN    10      58.010  38.125  45.349  1.00  0.00    -0.337 N 
ATOM     63  H   ASN    10      58.712  38.023  44.641  1.00 99.99     0.164 HD
BRANCH  62  64
ATOM     64  CA  ASN    10      58.375  38.975  46.499  1.00  0.00     0.169 C 
BRANCH  64  65
ATOM     65  CB  ASN    10      59.001  38.139  47.618  1.00  0.00     0.119 C 
BRANCH  65  66
ATOM     66  CG  ASN    10      58.254  38.321  48.949  1.00  0.00     0.230 C 
ATOM     67  ND2 ASN    10      56.954  38.474  48.864  1.00  0.00    -0.369 N 
ATOM     68 1HD2 ASN    10      56.464  38.591  49.725  1.00 99.99     0.159 HD
ATOM     69 2HD2 ASN    10      56.494  38.453  47.985  1.00 99.99     0.159 HD
ATOM     70  OD1 ASN    10      58.791  38.251  50.045  1.00  0.00    -0.273 OA
ENDBRANCH  65  66
ENDBRANCH  64  65
BRANCH  64  71
ATOM     71  C   ASN    10      59.223  40.192  46.094  1.00  0.00     0.251 C 
ATOM     72  O   ASN    10      60.056  40.071  45.196  1.00  0.00    -0.271 OA
ATOM     73  N   SER    11      59.197  41.235  46.927  1.00  0.00    -0.336 N 
ATOM     74  H   SER    11      58.547  41.288  47.691  1.00 99.99     0.164 HD
BRANCH  73  75
ATOM     75  CA  SER    11      60.009  42.462  46.741  1.00  0.00     0.189 C 
BRANCH  75  76
ATOM     76  C   SER    11      61.165  42.597  47.748  1.00  0.00     0.253 C 
ATOM     77  N   LEU    12      61.252  43.760  48.394  1.00  0.00    -0.337 N 
ATOM     78  H   LEU    12      60.674  44.542  48.142  1.00 99.99     0.164 HD
ATOM     79  O   SER    11      61.960  41.675  47.898  1.00  0.00    -0.270 OA
BRANCH  77  80
ATOM     80  CA  LEU    12      62.255  44.059  49.440  1.00  0.00     0.159 C 
BRANCH  80  81
ATOM     81  C   LEU    12      61.947  43.581  50.868  1.00  0.00     0.251 C 
ATOM     82  O   LEU    12      61.990  44.385  51.798  1.00  0.00    -0.271 OA
ATOM     83  N   PHE    13      61.474  42.343  50.991  1.00  0.00    -0.337 N 
ATOM     84  H   PHE    13      61.247  41.782  50.196  1.00 99.99     0.164 HD
BRANCH  83  85
ATOM     85  CA  PHE    13      61.107  41.767  52.297  1.00  0.00     0.164 C 
BRANCH  85  86
ATOM     86  C   PHE    13      59.657  42.071  52.722  1.00  0.00     0.251 C 
ATOM     87  O   PHE    13      59.386  43.175  53.191  1.00  0.00    -0.271 OA
ATOM     88  N   GLY    14      58.787  41.049  52.677  1.00  0.00    -0.336 N 
ATOM     89  H   GLY    14      59.059  40.091  52.511  1.00 99.99     0.164 HD
BRANCH  88  90
ATOM     90  CA  GLY    14      57.340  41.230  52.913  1.00  0.00     0.189 C 
BRANCH  90  91
ATOM     91  C   GLY    14      56.545  40.777  51.680  1.00  0.00     0.253 C 
ATOM     92  N   ARG    15      56.316  41.728  50.779  1.00  0.00    -0.336 N 
ATOM     93  H   ARG    15      56.774  42.614  50.835  1.00 99.99     0.164 HD
ATOM     94  O   GLY    14      56.131  39.627  51.569  1.00  0.00    -0.270 OA
BRANCH  92  95
ATOM     95  CA  ARG    15      55.474  41.526  49.575  1.00  0.00     0.168 C 
BRANCH  95  96
ATOM     96  C   ARG    15      55.982  42.376  48.400  1.00  0.00     0.206 C 
ATOM     97  O   ARG    15      56.085  43.612  48.557  1.00 99.99    -0.646 OA
ATOM     98  OXT ARG    15      56.262  41.735  47.362  1.00 99.99    -0.646 OA
ENDBRANCH  95  96
BRANCH  95  99
ATOM     99  CB  ARG    15      54.033  41.972  49.851  1.00  0.00     0.035 C 
BRANCH  99 100
ATOM    100  CG  ARG    15      52.952  40.938  49.532  1.00  0.00     0.027 C 
BRANCH 100 101
ATOM    101  CD  ARG    15      52.891  39.797  50.542  1.00  0.00     0.116 C 
BRANCH 101 102
ATOM    102  NE  ARG    15      53.558  38.648  49.911  1.00  0.00    -0.212 N 
ATOM    103  CZ  ARG    15      53.039  37.815  49.010  1.00  0.00     0.666 C 
ATOM    104  NH2 ARG    15      53.841  36.984  48.363  1.00  0.00    -0.235 N 
ATOM    105  NH1 ARG    15      51.780  37.911  48.606  1.00  0.00    -0.235 N 
ATOM    106 1HH2 ARG    15      53.461  36.365  47.679  1.00 99.99     0.174 HD
ATOM    107 2HH2 ARG    15      54.824  37.012  48.528  1.00 99.99     0.174 HD
ATOM    108 2HH1 ARG    15      51.217  38.652  48.965  1.00 99.99     0.174 HD
ATOM    109 1HH1 ARG    15      51.419  37.285  47.919  1.00 99.99     0.174 HD
ATOM    110  HE  ARG    15      54.477  38.455  50.258  1.00 99.99     0.178 HD
ENDBRANCH 101 102
ENDBRANCH 100 101
ENDBRANCH  99 100
ENDBRANCH  95  99
ENDBRANCH  92  95
ENDBRANCH  90  91
ENDBRANCH  88  90
ENDBRANCH  85  86
BRANCH  85 111
ATOM    111  CB  PHE    13      62.129  42.259  53.332  1.00  0.00     0.056 C 
BRANCH 111 112
ATOM    112  CG  PHE    13      62.663  41.154  54.244  1.00  0.00    -0.044 A 
ATOM    113  CD2 PHE    13      61.804  40.566  55.160  1.00  0.00     0.008 A 
ATOM    114  CE2 PHE    13      62.260  39.577  56.019  1.00  0.00     0.001 A 
ATOM    115  CZ  PHE    13      63.586  39.170  55.961  1.00  0.00     0.000 A 
ATOM    116  CE1 PHE    13      64.451  39.754  55.042  1.00  0.00     0.001 A 
ATOM    117  CD1 PHE    13      63.995  40.752  54.187  1.00  0.00     0.008 A 
ENDBRANCH 111 112
ENDBRANCH  85 111
ENDBRANCH  83  85
ENDBRANCH  80  81
BRANCH  80 118
ATOM    118  CB  LEU    12      62.538  45.561  49.484  1.00  0.00     0.032 C 
BRANCH 118 119
ATOM    119  CG  LEU    12      63.969  45.922  49.084  1.00  0.00     0.002 C 
ATOM    120  CD2 LEU    12      64.672  44.773  48.351  1.00  0.00     0.000 C 
ATOM    121  CD1 LEU    12      64.734  46.238  50.361  1.00  0.00     0.000 C 
ENDBRANCH 118 119
ENDBRANCH  80 118
ENDBRANCH  77  80
ENDBRANCH  75  76
BRANCH  75 122
ATOM    122  CB  SER    11      59.135  43.716  46.858  1.00  0.00     0.169 C 
BRANCH 122 123
ATOM    123  OG  SER    11      58.019  43.645  45.966  1.00  0.00    -0.380 OA
ATOM    124  HG  SER    11      58.317  43.915  45.051  1.00 99.99     0.211 HD
ENDBRANCH 122 123
ENDBRANCH  75 122
ENDBRANCH  73  75
ENDBRANCH  64  71
ENDBRANCH  62  64
ENDBRANCH  59  60
BRANCH  59 125
ATOM    125  CB  ILE     9      56.956  35.286  43.966  1.00  0.00     0.029 C 
ATOM    126  CG2 ILE     9      56.157  34.413  42.992  1.00  0.00     0.002 C 
BRANCH 125 127
ATOM    127  CG1 ILE     9      58.457  35.107  43.678  1.00  0.00     0.002 C 
ATOM    128  CD  ILE     9      58.787  34.641  42.255  1.00  0.00     0.000 C 
ENDBRANCH 125 127
ENDBRANCH  59 125
ENDBRANCH  57  59
ENDBRANCH  54  55
BRANCH  54 129
ATOM    129  CB  ILE     8      56.959  38.010  39.575  1.00  0.00     0.029 C 
ATOM    130  CG2 ILE     8      56.295  36.622  39.588  1.00  0.00     0.002 C 
BRANCH 129 131
ATOM    131  CG1 ILE     8      56.681  38.721  38.235  1.00  0.00     0.002 C 
ATOM    132  CD  ILE     8      55.337  38.377  37.579  1.00  0.00     0.000 C 
ENDBRANCH 129 131
ENDBRANCH  54 129
ENDBRANCH  52  54
ENDBRANCH  49  50
BRANCH  49 133
ATOM    133  CB  ASN     7      58.845  41.876  42.389  1.00  0.00     0.119 C 
BRANCH 133 134
ATOM    134  CG  ASN     7      59.578  43.231  42.416  1.00  0.00     0.230 C 
ATOM    135  ND2 ASN     7      60.113  43.584  43.560  1.00  0.00    -0.369 N 
ATOM    136 1HD2 ASN     7      60.590  44.460  43.578  1.00 99.99     0.159 HD
ATOM    137 2HD2 ASN     7      60.034  43.010  44.370  1.00 99.99     0.159 HD
ATOM    138  OD1 ASN     7      59.563  44.028  41.486  1.00  0.00    -0.273 OA
ENDBRANCH 133 134
ENDBRANCH  49 133
ENDBRANCH  47  49
ENDBRANCH  36  45
ENDBRANCH  33  36
ENDBRANCH  31  32
BRANCH  31 139
ATOM    139  CB  LYS     5      65.471  39.533  39.832  1.00  0.00     0.032 C 
BRANCH 139 140
ATOM    140  CG  LYS     5      66.988  39.751  39.873  1.00  0.00     0.004 C 
BRANCH 140 141
ATOM    141  CD  LYS     5      67.384  41.042  39.152  1.00  0.00     0.032 C 
BRANCH 141 142
ATOM    142  CE  LYS     5      68.436  41.815  39.950  1.00  0.00     0.206 C 
BRANCH 142 143
ATOM    143  NZ  LYS     5      67.943  42.192  41.285  1.00  0.00    -0.064 N 
ATOM    144  HZ3 LYS     5      67.102  42.727  41.199  1.00 99.99     0.275 HD
ATOM    145  HZ1 LYS     5      67.751  41.364  41.813  1.00 99.99     0.275 HD
ATOM    146  HZ2 LYS     5      68.636  42.731  41.764  1.00 99.99     0.275 HD
ENDBRANCH 142 143
ENDBRANCH 141 142
ENDBRANCH 140 141
ENDBRANCH 139 140
ENDBRANCH  31 139
ENDBRANCH  29  31
ENDBRANCH  24  27
ENDBRANCH  19  20
BRANCH  19 147
ATOM    147  CB  PHE     3      68.989  40.702  45.039  1.00  0.00     0.056 C 
BRANCH 147 148
ATOM    148  CG  PHE     3      70.003  41.834  45.244  1.00  0.00    -0.044 A 
ATOM    149  CD2 PHE     3      70.097  42.772  44.226  1.00  0.00     0.008 A 
ATOM    150  CE2 PHE     3      70.922  43.880  44.347  1.00  0.00     0.001 A 
ATOM    151  CZ  PHE     3      71.658  44.068  45.507  1.00  0.00     0.000 A 
ATOM    152  CE1 PHE     3      71.570  43.139  46.535  1.00  0.00     0.001 A 
ATOM    153  CD1 PHE     3      70.743  42.029  46.411  1.00  0.00     0.008 A 
ENDBRANCH 147 148
ENDBRANCH  19 147
ENDBRANCH  17  19
ENDBRANCH  10  15
ENDBRANCH   8  10
ENDBRANCH   5   6
BRANCH   5 154
ATOM    154  CB  PHE     1      63.337  39.317  50.725  1.00  0.00     0.064 C 
BRANCH 154 155
ATOM    155  CG  PHE     1      63.042  38.227  51.757  1.00  0.00    -0.044 A 
ATOM    156  CD2 PHE     1      64.068  37.419  52.234  1.00  0.00     0.008 A 
ATOM    157  CE2 PHE     1      63.820  36.513  53.258  1.00  0.00     0.001 A 
ATOM    158  CZ  PHE     1      62.545  36.412  53.802  1.00  0.00     0.000 A 
ATOM    159  CE1 PHE     1      61.517  37.207  53.313  1.00  0.00     0.001 A 
ATOM    160  CD1 PHE     1      61.760  38.106  52.283  1.00  0.00     0.008 A 
ENDBRANCH 154 155
ENDBRANCH   5 154
ENDBRANCH   1   5
TORSDOF 63
ENDMDL
MODEL 8
REMARK VINA RESULT:      -3.0      2.932     11.244
REMARK WARNING: 32 MAX_TORS EXCEEDED!!!
REMARK  63 active torsions:
REMARK  status: ('A' for Active; 'I' for Inactive)
REMARK    1  A    between atoms: N_1  and  CA_2 
REMARK    2  A    between atoms: CA_2  and  C_3 
REMARK    3  A    between atoms: CA_2  and  CB_5 
REMARK       I    between atoms: C_3  and  N_15 
REMARK    4  A    between atoms: CB_5  and  CG_6 
REMARK    5  A    between atoms: N_15  and  CA_16 
REMARK    6  A    between atoms: CA_16  and  CB_19 
REMARK    7  A    between atoms: CA_16  and  C_17 
REMARK       I    between atoms: C_17  and  N_24 
REMARK    8  A    between atoms: CB_19  and  CG1_20 
REMARK    9  A    between atoms: N_24  and  CA_25 
REMARK   10  A    between atoms: CA_25  and  C_26 
REMARK   11  A    between atoms: CA_25  and  CB_28 
REMARK       I    between atoms: C_26  and  N_36 
REMARK   12  A    between atoms: CB_28  and  CG_29 
REMARK   13  A    between atoms: CA_37  and  C_38 
REMARK       I    between atoms: C_38  and  N_43 
REMARK   14  A    between atoms: N_43  and  CA_44 
REMARK   15  A    between atoms: CA_44  and  C_45 
REMARK   16  A    between atoms: CA_44  and  CB_47 
REMARK       I    between atoms: C_45  and  N_56 
REMARK   17  A    between atoms: CB_47  and  CG_48 
REMARK   18  A    between atoms: CG_48  and  CD_49 
REMARK   19  A    between atoms: CD_49  and  CE_50 
REMARK   20  A    between atoms: CE_50  and  NZ_51 
REMARK   21  A    between atoms: N_56  and  CA_57 
REMARK   22  A    between atoms: CA_57  and  CB_60 
REMARK   23  A    between atoms: CA_57  and  C_58 
REMARK       I    between atoms: C_58  and  N_69 
REMARK   24  A    between atoms: CB_60  and  CG_61 
REMARK   25  A    between atoms: CG_61  and  CD_62 
REMARK   26  A    between atoms: CD_62  and  CE_63 
REMARK   27  A    between atoms: CE_63  and  NZ_64 
REMARK   28  A    between atoms: N_69  and  CA_70 
REMARK   29  A    between atoms: CA_70  and  C_71 
REMARK   30  A    between atoms: CA_70  and  CB_73 
REMARK       I    between atoms: C_71  and  N_80 
REMARK   31  A    between atoms: CB_73  and  CG_74 
REMARK       I    between atoms: CG_74  and  ND2_76 
REMARK   32  A    between atoms: N_80  and  CA_81 
REMARK   33  A    between atoms: CA_81  and  C_82 
REMARK   34  A    between atoms: CA_81  and  CB_84 
REMARK       I    between atoms: C_82  and  N_89 
REMARK   35  A    between atoms: CB_84  and  CG1_85 
REMARK   36  A    between atoms: N_89  and  CA_90 
REMARK   37  A    between atoms: CA_90  and  C_91 
REMARK   38  A    between atoms: CA_90  and  CB_93 
REMARK       I    between atoms: C_91  and  N_98 
REMARK   39  A    between atoms: CB_93  and  CG1_94 
REMARK   40  A    between atoms: N_98  and  CA_99 
REMARK   41  A    between atoms: CA_99  and  CB_102 
REMARK   42  A    between atoms: CA_99  and  C_100 
REMARK       I    between atoms: C_100  and  N_109 
REMARK   43  A    between atoms: CB_102  and  CG_103 
REMARK       I    between atoms: CG_103  and  ND2_105 
REMARK   44  A    between atoms: N_109  and  CA_110 
REMARK   45  A    between atoms: CA_110  and  C_111 
REMARK   46  A    between atoms: CA_110  and  CB_113 
REMARK       I    between atoms: C_111  and  N_117 
REMARK   47  A    between atoms: CB_113  and  OG_114 
REMARK   48  A    between atoms: N_117  and  CA_118 
REMARK   49  A    between atoms: CA_118  and  C_119 
REMARK   50  A    between atoms: CA_118  and  CB_121 
REMARK       I    between atoms: C_119  and  N_126 
REMARK   51  A    between atoms: CB_121  and  CG_122 
REMARK   52  A    between atoms: N_126  and  CA_127 
REMARK   53  A    between atoms: CA_127  and  C_128 
REMARK   54  A    between atoms: CA_127  and  CB_130 
REMARK       I    between atoms: C_128  and  N_138 
REMARK   55  A    between atoms: CB_130  and  CG_131 
REMARK   56  A    between atoms: N_138  and  CA_139 
REMARK   57  A    between atoms: CA_139  and  C_140 
REMARK       I    between atoms: C_140  and  N_143 
REMARK   58  A    between atoms: N_143  and  CA_144 
REMARK   59  A    between atoms: CA_144  and  C_145 
REMARK   60  A    between atoms: CA_144  and  CB_147 
REMARK   61  A    between atoms: CB_147  and  CG_148 
REMARK   62  A    between atoms: CG_148  and  CD_149 
REMARK   63  A    between atoms: CD_149  and  NE_150 
REMARK       I    between atoms: NE_150  and  CZ_151 
REMARK       I    between atoms: CZ_151  and  NH1_152 
ROOT
ATOM      1  N   PHE     1      60.089  35.920  41.656  1.00  0.00    -0.057 N 
ATOM      2  H1  PHE     1      59.711  35.193  41.079  1.00 99.99     0.276 HD
ATOM      3  H2  PHE     1      60.978  36.177  41.306  1.00 99.99     0.276 HD
ATOM      4  H3  PHE     1      60.263  35.565  42.562  1.00 99.99     0.276 HD
ENDROOT
BRANCH   1   5
ATOM      5  CA  PHE     1      59.130  37.052  41.651  1.00  0.00     0.259 C 
BRANCH   5   6
ATOM      6  C   PHE     1      59.691  38.271  40.880  1.00  0.00     0.259 C 
ATOM      7  O   PHE     1      60.699  38.846  41.290  1.00  0.00    -0.271 OA
ATOM      8  N   ILE     2      59.068  38.638  39.758  1.00  0.00    -0.338 N 
ATOM      9  H   ILE     2      58.284  38.146  39.383  1.00 99.99     0.164 HD
BRANCH   8  10
ATOM     10  CA  ILE     2      59.484  39.829  38.985  1.00  0.00     0.159 C 
BRANCH  10  11
ATOM     11  CB  ILE     2      59.100  41.137  39.712  1.00  0.00     0.029 C 
ATOM     12  CG2 ILE     2      58.825  42.264  38.698  1.00  0.00     0.002 C 
BRANCH  11  13
ATOM     13  CG1 ILE     2      57.870  40.909  40.613  1.00  0.00     0.002 C 
ATOM     14  CD  ILE     2      58.038  41.363  42.071  1.00  0.00     0.000 C 
ENDBRANCH  11  13
ENDBRANCH  10  11
BRANCH  10  15
ATOM     15  C   ILE     2      60.992  39.720  38.699  1.00  0.00     0.251 C 
ATOM     16  O   ILE     2      61.418  38.866  37.923  1.00  0.00    -0.271 OA
ATOM     17  N   PHE     3      61.741  40.674  39.251  1.00  0.00    -0.337 N 
ATOM     18  H   PHE     3      61.342  41.385  39.829  1.00 99.99     0.164 HD
BRANCH  17  19
ATOM     19  CA  PHE     3      63.199  40.782  39.036  1.00  0.00     0.164 C 
BRANCH  19  20
ATOM     20  C   PHE     3      64.032  40.755  40.335  1.00  0.00     0.254 C 
ATOM     21  O   PHE     3      64.233  41.816  40.932  1.00  0.00    -0.270 OA
ATOM     22  N   PRO     4      64.690  39.613  40.616  1.00  0.00    -0.312 N 
ATOM     23  CD  PRO     4      65.042  38.578  39.617  1.00  0.00     0.105 C 
ATOM     24  CA  PRO     4      65.362  39.280  41.893  1.00  0.00     0.163 C 
ATOM     25  CG  PRO     4      65.920  37.565  40.355  1.00  0.00     0.027 C 
ATOM     26  CB  PRO     4      66.539  38.395  41.476  1.00  0.00     0.034 C 
BRANCH  24  27
ATOM     27  C   PRO     4      65.729  40.379  42.908  1.00  0.00     0.251 C 
ATOM     28  O   PRO     4      66.836  40.907  42.849  1.00  0.00    -0.271 OA
ATOM     29  N   LYS     5      64.793  40.763  43.780  1.00  0.00    -0.338 N 
ATOM     30  H   LYS     5      63.945  40.252  43.890  1.00 99.99     0.164 HD
BRANCH  29  31
ATOM     31  CA  LYS     5      64.941  41.934  44.675  1.00  0.00     0.159 C 
BRANCH  31  32
ATOM     32  C   LYS     5      65.180  41.570  46.152  1.00  0.00     0.251 C 
ATOM     33  N   LYS     6      64.852  42.536  47.017  1.00  0.00    -0.338 N 
ATOM     34  H   LYS     6      64.596  43.443  46.682  1.00 99.99     0.164 HD
ATOM     35  O   LYS     5      65.387  40.399  46.472  1.00  0.00    -0.271 OA
BRANCH  33  36
ATOM     36  CA  LYS     6      64.977  42.461  48.494  1.00  0.00     0.159 C 
BRANCH  36  37
ATOM     37  CB  LYS     6      65.388  43.857  48.999  1.00  0.00     0.032 C 
BRANCH  37  38
ATOM     38  CG  LYS     6      64.919  45.019  48.114  1.00  0.00     0.004 C 
BRANCH  38  39
ATOM     39  CD  LYS     6      64.237  46.115  48.940  1.00  0.00     0.032 C 
BRANCH  39  40
ATOM     40  CE  LYS     6      64.255  45.769  50.432  1.00  0.00     0.206 C 
BRANCH  40  41
ATOM     41  NZ  LYS     6      62.914  45.433  50.937  1.00  0.00    -0.064 N 
ATOM     42  HZ2 LYS     6      62.437  46.269  51.212  1.00 99.99     0.275 HD
ATOM     43  HZ1 LYS     6      62.997  44.829  51.729  1.00 99.99     0.275 HD
ATOM     44  HZ3 LYS     6      62.387  44.970  50.223  1.00 99.99     0.275 HD
ENDBRANCH  40  41
ENDBRANCH  39  40
ENDBRANCH  38  39
ENDBRANCH  37  38
ENDBRANCH  36  37
BRANCH  36  45
ATOM     45  C   LYS     6      63.691  41.976  49.197  1.00  0.00     0.251 C 
ATOM     46  O   LYS     6      63.259  42.540  50.202  1.00  0.00    -0.271 OA
ATOM     47  N   ASN     7      63.206  40.824  48.743  1.00  0.00    -0.337 N 
ATOM     48  H   ASN     7      63.531  40.441  47.878  1.00 99.99     0.164 HD
BRANCH  47  49
ATOM     49  CA  ASN     7      61.998  40.156  49.268  1.00  0.00     0.169 C 
BRANCH  49  50
ATOM     50  C   ASN     7      62.337  39.004  50.234  1.00  0.00     0.251 C 
ATOM     51  O   ASN     7      61.626  38.805  51.217  1.00  0.00    -0.271 OA
ATOM     52  N   ILE     8      63.557  38.478  50.108  1.00  0.00    -0.338 N 
ATOM     53  H   ILE     8      64.248  38.910  49.531  1.00 99.99     0.164 HD
BRANCH  52  54
ATOM     54  CA  ILE     8      64.058  37.334  50.906  1.00  0.00     0.159 C 
BRANCH  54  55
ATOM     55  C   ILE     8      63.949  37.603  52.424  1.00  0.00     0.251 C 
ATOM     56  O   ILE     8      64.528  38.580  52.896  1.00  0.00    -0.271 OA
ATOM     57  N   ILE     9      63.317  36.695  53.171  1.00  0.00    -0.338 N 
ATOM     58  H   ILE     9      62.845  35.903  52.777  1.00 99.99     0.164 HD
BRANCH  57  59
ATOM     59  CA  ILE     9      63.230  36.809  54.647  1.00  0.00     0.159 C 
BRANCH  59  60
ATOM     60  C   ILE     9      62.097  37.743  55.128  1.00  0.00     0.251 C 
ATOM     61  O   ILE     9      61.538  37.522  56.201  1.00  0.00    -0.271 OA
ATOM     62  N   ASN    10      61.660  38.662  54.272  1.00  0.00    -0.337 N 
ATOM     63  H   ASN    10      62.097  38.834  53.387  1.00 99.99     0.164 HD
BRANCH  62  64
ATOM     64  CA  ASN    10      60.500  39.515  54.593  1.00  0.00     0.169 C 
BRANCH  64  65
ATOM     65  CB  ASN    10      60.787  40.978  54.250  1.00  0.00     0.119 C 
BRANCH  65  66
ATOM     66  CG  ASN    10      62.280  41.213  53.968  1.00  0.00     0.230 C 
ATOM     67  ND2 ASN    10      62.590  41.543  52.736  1.00  0.00    -0.369 N 
ATOM     68 1HD2 ASN    10      63.556  41.698  52.548  1.00 99.99     0.159 HD
ATOM     69 2HD2 ASN    10      61.886  41.647  52.044  1.00 99.99     0.159 HD
ATOM     70  OD1 ASN    10      63.148  41.185  54.829  1.00  0.00    -0.273 OA
ENDBRANCH  65  66
ENDBRANCH  64  65
BRANCH  64  71
ATOM     71  C   ASN    10      59.188  38.988  53.988  1.00  0.00     0.251 C 
ATOM     72  O   ASN    10      59.199  37.930  53.359  1.00  0.00    -0.271 OA
ATOM     73  N   SER    11      58.168  39.848  53.947  1.00  0.00    -0.336 N 
ATOM     74  H   SER    11      58.201  40.734  54.420  1.00 99.99     0.164 HD
BRANCH  73  75
ATOM     75  CA  SER    11      56.853  39.544  53.331  1.00  0.00     0.189 C 
BRANCH  75  76
ATOM     76  C   SER    11      56.135  40.781  52.765  1.00  0.00     0.253 C 
ATOM     77  N   LEU    12      55.864  40.760  51.459  1.00  0.00    -0.337 N 
ATOM     78  H   LEU    12      56.223  40.036  50.864  1.00 99.99     0.164 HD
ATOM     79  O   SER    11      55.870  41.728  53.499  1.00  0.00    -0.270 OA
BRANCH  77  80
ATOM     80  CA  LEU    12      55.129  41.827  50.744  1.00  0.00     0.159 C 
BRANCH  80  81
ATOM     81  C   LEU    12      54.156  41.390  49.637  1.00  0.00     0.251 C 
ATOM     82  O   LEU    12      53.542  42.245  48.999  1.00  0.00    -0.271 OA
ATOM     83  N   PHE    13      54.168  40.100  49.311  1.00  0.00    -0.337 N 
ATOM     84  H   PHE    13      54.831  39.462  49.700  1.00 99.99     0.164 HD
BRANCH  83  85
ATOM     85  CA  PHE    13      53.310  39.550  48.245  1.00  0.00     0.164 C 
BRANCH  85  86
ATOM     86  C   PHE    13      52.015  38.898  48.768  1.00  0.00     0.251 C 
ATOM     87  O   PHE    13      51.089  39.616  49.143  1.00  0.00    -0.271 OA
ATOM     88  N   GLY    14      52.024  37.563  48.910  1.00  0.00    -0.336 N 
ATOM     89  H   GLY    14      52.856  36.998  48.819  1.00 99.99     0.164 HD
BRANCH  88  90
ATOM     90  CA  GLY    14      50.811  36.795  49.258  1.00  0.00     0.189 C 
BRANCH  90  91
ATOM     91  C   GLY    14      50.647  36.733  50.783  1.00  0.00     0.253 C 
ATOM     92  N   ARG    15      49.481  37.180  51.241  1.00  0.00    -0.336 N 
ATOM     93  H   ARG    15      48.724  37.378  50.620  1.00 99.99     0.164 HD
ATOM     94  O   GLY    14      51.549  36.330  51.511  1.00  0.00    -0.270 OA
BRANCH  92  95
ATOM     95  CA  ARG    15      49.167  37.310  52.684  1.00  0.00     0.168 C 
BRANCH  95  96
ATOM     96  C   ARG    15      48.047  36.341  53.093  1.00  0.00     0.206 C 
ATOM     97  O   ARG    15      46.944  36.814  53.439  1.00 99.99    -0.646 OA
ATOM     98  OXT ARG    15      48.346  35.127  53.034  1.00 99.99    -0.646 OA
ENDBRANCH  95  96
BRANCH  95  99
ATOM     99  CB  ARG    15      48.662  38.724  52.995  1.00  0.00     0.035 C 
BRANCH  99 100
ATOM    100  CG  ARG    15      49.284  39.389  54.224  1.00  0.00     0.027 C 
BRANCH 100 101
ATOM    101  CD  ARG    15      48.290  39.608  55.360  1.00  0.00     0.116 C 
BRANCH 101 102
ATOM    102  NE  ARG    15      47.796  40.986  55.219  1.00  0.00    -0.212 N 
ATOM    103  CZ  ARG    15      47.658  41.891  56.187  1.00  0.00     0.666 C 
ATOM    104  NH2 ARG    15      47.433  43.154  55.862  1.00  0.00    -0.235 N 
ATOM    105  NH1 ARG    15      47.917  41.609  57.456  1.00  0.00    -0.235 N 
ATOM    106 1HH2 ARG    15      47.340  43.839  56.581  1.00 99.99     0.174 HD
ATOM    107 2HH2 ARG    15      47.404  43.424  54.902  1.00 99.99     0.174 HD
ATOM    108 2HH1 ARG    15      48.257  40.700  57.685  1.00 99.99     0.174 HD
ATOM    109 1HH1 ARG    15      47.820  42.308  58.161  1.00 99.99     0.174 HD
ATOM    110  HE  ARG    15      47.478  41.226  54.301  1.00 99.99     0.178 HD
ENDBRANCH 101 102
ENDBRANCH 100 101
ENDBRANCH  99 100
ENDBRANCH  95  99
ENDBRANCH  92  95
ENDBRANCH  90  91
ENDBRANCH  88  90
ENDBRANCH  85  86
BRANCH  85 111
ATOM    111  CB  PHE    13      54.156  38.574  47.416  1.00  0.00     0.056 C 
BRANCH 111 112
ATOM    112  CG  PHE    13      55.390  39.214  46.779  1.00  0.00    -0.044 A 
ATOM    113  CD2 PHE    13      56.648  38.784  47.175  1.00  0.00     0.008 A 
ATOM    114  CE2 PHE    13      57.790  39.358  46.635  1.00  0.00     0.001 A 
ATOM    115  CZ  PHE    13      57.674  40.368  45.690  1.00  0.00     0.000 A 
ATOM    116  CE1 PHE    13      56.414  40.800  45.287  1.00  0.00     0.001 A 
ATOM    117  CD1 PHE    13      55.270  40.230  45.836  1.00  0.00     0.008 A 
ENDBRANCH 111 112
ENDBRANCH  85 111
ENDBRANCH  83  85
ENDBRANCH  80  81
BRANCH  80 118
ATOM    118  CB  LEU    12      56.111  42.837  50.152  1.00  0.00     0.032 C 
BRANCH 118 119
ATOM    119  CG  LEU    12      56.903  42.292  48.964  1.00  0.00     0.002 C 
ATOM    120  CD2 LEU    12      58.348  41.945  49.342  1.00  0.00     0.000 C 
ATOM    121  CD1 LEU    12      56.916  43.371  47.890  1.00  0.00     0.000 C 
ENDBRANCH 118 119
ENDBRANCH  80 118
ENDBRANCH  77  80
ENDBRANCH  75  76
BRANCH  75 122
ATOM    122  CB  SER    11      55.916  38.880  54.347  1.00  0.00     0.169 C 
BRANCH 122 123
ATOM    123  OG  SER    11      54.580  39.371  54.204  1.00  0.00    -0.380 OA
ATOM    124  HG  SER    11      54.327  39.869  55.032  1.00 99.99     0.211 HD
ENDBRANCH 122 123
ENDBRANCH  75 122
ENDBRANCH  73  75
ENDBRANCH  64  71
ENDBRANCH  62  64
ENDBRANCH  59  60
BRANCH  59 125
ATOM    125  CB  ILE     9      64.605  37.082  55.312  1.00  0.00     0.029 C 
ATOM    126  CG2 ILE     9      64.547  38.167  56.392  1.00  0.00     0.002 C 
BRANCH 125 127
ATOM    127  CG1 ILE     9      65.278  35.830  55.901  1.00  0.00     0.002 C 
ATOM    128  CD  ILE     9      66.137  35.036  54.909  1.00  0.00     0.000 C 
ENDBRANCH 125 127
ENDBRANCH  59 125
ENDBRANCH  57  59
ENDBRANCH  54  55
BRANCH  54 129
ATOM    129  CB  ILE     8      65.482  36.936  50.454  1.00  0.00     0.029 C 
ATOM    130  CG2 ILE     8      65.456  35.694  49.546  1.00  0.00     0.002 C 
BRANCH 129 131
ATOM    131  CG1 ILE     8      66.152  38.117  49.722  1.00  0.00     0.002 C 
ATOM    132  CD  ILE     8      67.197  38.887  50.542  1.00  0.00     0.000 C 
ENDBRANCH 129 131
ENDBRANCH  54 129
ENDBRANCH  52  54
ENDBRANCH  49  50
BRANCH  49 133
ATOM    133  CB  ASN     7      61.158  39.652  48.082  1.00  0.00     0.119 C 
BRANCH 133 134
ATOM    134  CG  ASN     7      61.964  38.955  46.969  1.00  0.00     0.230 C 
ATOM    135  ND2 ASN     7      61.410  38.920  45.781  1.00  0.00    -0.369 N 
ATOM    136 1HD2 ASN     7      61.932  38.471  45.059  1.00 99.99     0.159 HD
ATOM    137 2HD2 ASN     7      60.509  39.310  45.615  1.00 99.99     0.159 HD
ATOM    138  OD1 ASN     7      62.999  38.333  47.171  1.00  0.00    -0.273 OA
ENDBRANCH 133 134
ENDBRANCH  49 133
ENDBRANCH  47  49
ENDBRANCH  36  45
ENDBRANCH  33  36
ENDBRANCH  31  32
BRANCH  31 139
ATOM    139  CB  LYS     5      63.716  42.852  44.560  1.00  0.00     0.032 C 
BRANCH 139 140
ATOM    140  CG  LYS     5      62.430  42.201  45.082  1.00  0.00     0.004 C 
BRANCH 140 141
ATOM    141  CD  LYS     5      61.201  42.711  44.325  1.00  0.00     0.032 C 
BRANCH 141 142
ATOM    142  CE  LYS     5      61.387  42.560  42.813  1.00  0.00     0.206 C 
BRANCH 142 143
ATOM    143  NZ  LYS     5      60.667  43.603  42.065  1.00  0.00    -0.064 N 
ATOM    144  HZ3 LYS     5      60.266  44.262  42.701  1.00 99.99     0.275 HD
ATOM    145  HZ1 LYS     5      61.308  44.079  41.461  1.00 99.99     0.275 HD
ATOM    146  HZ2 LYS     5      59.945  43.188  41.512  1.00 99.99     0.275 HD
ENDBRANCH 142 143
ENDBRANCH 141 142
ENDBRANCH 140 141
ENDBRANCH 139 140
ENDBRANCH  31 139
ENDBRANCH  29  31
ENDBRANCH  24  27
ENDBRANCH  19  20
BRANCH  19 147
ATOM    147  CB  PHE     3      63.522  42.054  38.237  1.00  0.00     0.056 C 
BRANCH 147 148
ATOM    148  CG  PHE     3      62.556  42.427  37.106  1.00  0.00    -0.044 A 
ATOM    149  CD2 PHE     3      61.878  43.628  37.243  1.00  0.00     0.008 A 
ATOM    150  CE2 PHE     3      61.046  44.100  36.239  1.00  0.00     0.001 A 
ATOM    151  CZ  PHE     3      60.895  43.370  35.069  1.00  0.00     0.000 A 
ATOM    152  CE1 PHE     3      61.572  42.168  34.918  1.00  0.00     0.001 A 
ATOM    153  CD1 PHE     3      62.404  41.697  35.926  1.00  0.00     0.008 A 
ENDBRANCH 147 148
ENDBRANCH  19 147
ENDBRANCH  17  19
ENDBRANCH  10  15
ENDBRANCH   8  10
ENDBRANCH   5   6
BRANCH   5 154
ATOM    154  CB  PHE     1      58.794  37.496  43.083  1.00  0.00     0.064 C 
BRANCH 154 155
ATOM    155  CG  PHE     1      57.305  37.402  43.416  1.00  0.00    -0.044 A 
ATOM    156  CD2 PHE     1      56.380  38.163  42.710  1.00  0.00     0.008 A 
ATOM    157  CE2 PHE     1      55.020  37.986  42.931  1.00  0.00     0.001 A 
ATOM    158  CZ  PHE     1      54.584  37.050  43.862  1.00  0.00     0.000 A 
ATOM    159  CE1 PHE     1      55.508  36.303  44.581  1.00  0.00     0.001 A 
ATOM    160  CD1 PHE     1      56.868  36.485  44.368  1.00  0.00     0.008 A 
ENDBRANCH 154 155
ENDBRANCH   5 154
ENDBRANCH   1   5
TORSDOF 63
ENDMDL
MODEL 9
REMARK VINA RESULT:      -2.9      2.417     11.259
REMARK WARNING: 32 MAX_TORS EXCEEDED!!!
REMARK  63 active torsions:
REMARK  status: ('A' for Active; 'I' for Inactive)
REMARK    1  A    between atoms: N_1  and  CA_2 
REMARK    2  A    between atoms: CA_2  and  C_3 
REMARK    3  A    between atoms: CA_2  and  CB_5 
REMARK       I    between atoms: C_3  and  N_15 
REMARK    4  A    between atoms: CB_5  and  CG_6 
REMARK    5  A    between atoms: N_15  and  CA_16 
REMARK    6  A    between atoms: CA_16  and  CB_19 
REMARK    7  A    between atoms: CA_16  and  C_17 
REMARK       I    between atoms: C_17  and  N_24 
REMARK    8  A    between atoms: CB_19  and  CG1_20 
REMARK    9  A    between atoms: N_24  and  CA_25 
REMARK   10  A    between atoms: CA_25  and  C_26 
REMARK   11  A    between atoms: CA_25  and  CB_28 
REMARK       I    between atoms: C_26  and  N_36 
REMARK   12  A    between atoms: CB_28  and  CG_29 
REMARK   13  A    between atoms: CA_37  and  C_38 
REMARK       I    between atoms: C_38  and  N_43 
REMARK   14  A    between atoms: N_43  and  CA_44 
REMARK   15  A    between atoms: CA_44  and  C_45 
REMARK   16  A    between atoms: CA_44  and  CB_47 
REMARK       I    between atoms: C_45  and  N_56 
REMARK   17  A    between atoms: CB_47  and  CG_48 
REMARK   18  A    between atoms: CG_48  and  CD_49 
REMARK   19  A    between atoms: CD_49  and  CE_50 
REMARK   20  A    between atoms: CE_50  and  NZ_51 
REMARK   21  A    between atoms: N_56  and  CA_57 
REMARK   22  A    between atoms: CA_57  and  CB_60 
REMARK   23  A    between atoms: CA_57  and  C_58 
REMARK       I    between atoms: C_58  and  N_69 
REMARK   24  A    between atoms: CB_60  and  CG_61 
REMARK   25  A    between atoms: CG_61  and  CD_62 
REMARK   26  A    between atoms: CD_62  and  CE_63 
REMARK   27  A    between atoms: CE_63  and  NZ_64 
REMARK   28  A    between atoms: N_69  and  CA_70 
REMARK   29  A    between atoms: CA_70  and  C_71 
REMARK   30  A    between atoms: CA_70  and  CB_73 
REMARK       I    between atoms: C_71  and  N_80 
REMARK   31  A    between atoms: CB_73  and  CG_74 
REMARK       I    between atoms: CG_74  and  ND2_76 
REMARK   32  A    between atoms: N_80  and  CA_81 
REMARK   33  A    between atoms: CA_81  and  C_82 
REMARK   34  A    between atoms: CA_81  and  CB_84 
REMARK       I    between atoms: C_82  and  N_89 
REMARK   35  A    between atoms: CB_84  and  CG1_85 
REMARK   36  A    between atoms: N_89  and  CA_90 
REMARK   37  A    between atoms: CA_90  and  C_91 
REMARK   38  A    between atoms: CA_90  and  CB_93 
REMARK       I    between atoms: C_91  and  N_98 
REMARK   39  A    between atoms: CB_93  and  CG1_94 
REMARK   40  A    between atoms: N_98  and  CA_99 
REMARK   41  A    between atoms: CA_99  and  CB_102 
REMARK   42  A    between atoms: CA_99  and  C_100 
REMARK       I    between atoms: C_100  and  N_109 
REMARK   43  A    between atoms: CB_102  and  CG_103 
REMARK       I    between atoms: CG_103  and  ND2_105 
REMARK   44  A    between atoms: N_109  and  CA_110 
REMARK   45  A    between atoms: CA_110  and  C_111 
REMARK   46  A    between atoms: CA_110  and  CB_113 
REMARK       I    between atoms: C_111  and  N_117 
REMARK   47  A    between atoms: CB_113  and  OG_114 
REMARK   48  A    between atoms: N_117  and  CA_118 
REMARK   49  A    between atoms: CA_118  and  C_119 
REMARK   50  A    between atoms: CA_118  and  CB_121 
REMARK       I    between atoms: C_119  and  N_126 
REMARK   51  A    between atoms: CB_121  and  CG_122 
REMARK   52  A    between atoms: N_126  and  CA_127 
REMARK   53  A    between atoms: CA_127  and  C_128 
REMARK   54  A    between atoms: CA_127  and  CB_130 
REMARK       I    between atoms: C_128  and  N_138 
REMARK   55  A    between atoms: CB_130  and  CG_131 
REMARK   56  A    between atoms: N_138  and  CA_139 
REMARK   57  A    between atoms: CA_139  and  C_140 
REMARK       I    between atoms: C_140  and  N_143 
REMARK   58  A    between atoms: N_143  and  CA_144 
REMARK   59  A    between atoms: CA_144  and  C_145 
REMARK   60  A    between atoms: CA_144  and  CB_147 
REMARK   61  A    between atoms: CB_147  and  CG_148 
REMARK   62  A    between atoms: CG_148  and  CD_149 
REMARK   63  A    between atoms: CD_149  and  NE_150 
REMARK       I    between atoms: NE_150  and  CZ_151 
REMARK       I    between atoms: CZ_151  and  NH1_152 
ROOT
ATOM      1  N   PHE     1      63.591  38.200  49.557  1.00  0.00    -0.057 N 
ATOM      2  H1  PHE     1      63.284  37.245  49.554  1.00 99.99     0.276 HD
ATOM      3  H2  PHE     1      62.871  38.767  49.928  1.00 99.99     0.276 HD
ATOM      4  H3  PHE     1      63.709  38.510  48.625  1.00 99.99     0.276 HD
ENDROOT
BRANCH   1   5
ATOM      5  CA  PHE     1      64.839  38.276  50.355  1.00  0.00     0.259 C 
BRANCH   5   6
ATOM      6  C   PHE     1      66.066  38.590  49.465  1.00  0.00     0.259 C 
ATOM      7  O   PHE     1      65.942  38.635  48.242  1.00  0.00    -0.271 OA
ATOM      8  N   ILE     2      67.227  38.841  50.073  1.00  0.00    -0.338 N 
ATOM      9  H   ILE     2      67.330  38.866  51.066  1.00 99.99     0.164 HD
BRANCH   8  10
ATOM     10  CA  ILE     2      68.472  39.086  49.313  1.00  0.00     0.159 C 
BRANCH  10  11
ATOM     11  CB  ILE     2      69.039  37.776  48.720  1.00  0.00     0.029 C 
ATOM     12  CG2 ILE     2      70.558  37.894  48.490  1.00  0.00     0.002 C 
BRANCH  11  13
ATOM     13  CG1 ILE     2      68.724  36.587  49.648  1.00  0.00     0.002 C 
ATOM     14  CD  ILE     2      69.696  36.401  50.821  1.00  0.00     0.000 C 
ENDBRANCH  11  13
ENDBRANCH  10  11
BRANCH  10  15
ATOM     15  C   ILE     2      68.186  40.156  48.244  1.00  0.00     0.251 C 
ATOM     16  O   ILE     2      68.043  41.334  48.566  1.00  0.00    -0.271 OA
ATOM     17  N   PHE     3      68.231  39.722  46.985  1.00  0.00    -0.337 N 
ATOM     18  H   PHE     3      68.410  38.763  46.767  1.00 99.99     0.164 HD
BRANCH  17  19
ATOM     19  CA  PHE     3      68.053  40.610  45.818  1.00  0.00     0.164 C 
BRANCH  19  20
ATOM     20  C   PHE     3      66.697  40.444  45.100  1.00  0.00     0.254 C 
ATOM     21  O   PHE     3      66.638  39.715  44.107  1.00  0.00    -0.270 OA
ATOM     22  N   PRO     4      65.710  41.291  45.455  1.00  0.00    -0.312 N 
ATOM     23  CD  PRO     4      65.922  42.599  46.115  1.00  0.00     0.105 C 
ATOM     24  CA  PRO     4      64.284  41.184  45.072  1.00  0.00     0.163 C 
ATOM     25  CG  PRO     4      64.547  43.270  46.166  1.00  0.00     0.027 C 
ATOM     26  CB  PRO     4      63.810  42.637  44.990  1.00  0.00     0.034 C 
BRANCH  24  27
ATOM     27  C   PRO     4      63.844  40.310  43.883  1.00  0.00     0.251 C 
ATOM     28  O   PRO     4      63.177  39.300  44.092  1.00  0.00    -0.271 OA
ATOM     29  N   LYS     5      64.152  40.727  42.652  1.00  0.00    -0.338 N 
ATOM     30  H   LYS     5      64.785  41.482  42.504  1.00 99.99     0.164 HD
BRANCH  29  31
ATOM     31  CA  LYS     5      63.627  40.094  41.419  1.00  0.00     0.159 C 
BRANCH  31  32
ATOM     32  C   LYS     5      62.141  40.388  41.145  1.00  0.00     0.251 C 
ATOM     33  N   LYS     6      61.876  41.670  40.870  1.00  0.00    -0.338 N 
ATOM     34  H   LYS     6      62.590  42.362  40.968  1.00 99.99     0.164 HD
ATOM     35  O   LYS     5      61.358  39.461  40.935  1.00  0.00    -0.271 OA
BRANCH  33  36
ATOM     36  CA  LYS     6      60.537  42.236  40.568  1.00  0.00     0.159 C 
BRANCH  36  37
ATOM     37  CB  LYS     6      60.163  41.811  39.136  1.00  0.00     0.032 C 
BRANCH  37  38
ATOM     38  CG  LYS     6      60.117  42.960  38.121  1.00  0.00     0.004 C 
BRANCH  38  39
ATOM     39  CD  LYS     6      58.826  42.931  37.297  1.00  0.00     0.032 C 
BRANCH  39  40
ATOM     40  CE  LYS     6      58.475  41.500  36.878  1.00  0.00     0.206 C 
BRANCH  40  41
ATOM     41  NZ  LYS     6      58.210  41.397  35.434  1.00  0.00    -0.064 N 
ATOM     42  HZ2 LYS     6      57.421  40.802  35.276  1.00 99.99     0.275 HD
ATOM     43  HZ1 LYS     6      59.009  41.007  34.975  1.00 99.99     0.275 HD
ATOM     44  HZ3 LYS     6      58.024  42.304  35.055  1.00 99.99     0.275 HD
ENDBRANCH  40  41
ENDBRANCH  39  40
ENDBRANCH  38  39
ENDBRANCH  37  38
ENDBRANCH  36  37
BRANCH  36  45
ATOM     45  C   LYS     6      59.446  41.808  41.574  1.00  0.00     0.251 C 
ATOM     46  O   LYS     6      58.254  41.821  41.270  1.00  0.00    -0.271 OA
ATOM     47  N   ASN     7      59.879  41.602  42.815  1.00  0.00    -0.337 N 
ATOM     48  H   ASN     7      60.858  41.519  43.004  1.00 99.99     0.164 HD
BRANCH  47  49
ATOM     49  CA  ASN     7      59.021  41.202  43.948  1.00  0.00     0.169 C 
BRANCH  49  50
ATOM     50  C   ASN     7      58.313  39.855  43.701  1.00  0.00     0.251 C 
ATOM     51  O   ASN     7      58.950  38.808  43.797  1.00  0.00    -0.271 OA
ATOM     52  N   ILE     8      57.121  39.923  43.105  1.00  0.00    -0.338 N 
ATOM     53  H   ILE     8      56.790  40.779  42.711  1.00 99.99     0.164 HD
BRANCH  52  54
ATOM     54  CA  ILE     8      56.261  38.749  42.825  1.00  0.00     0.159 C 
BRANCH  54  55
ATOM     55  C   ILE     8      55.935  37.959  44.111  1.00  0.00     0.251 C 
ATOM     56  O   ILE     8      54.861  38.163  44.677  1.00  0.00    -0.271 OA
ATOM     57  N   ILE     9      56.886  37.165  44.610  1.00  0.00    -0.338 N 
ATOM     58  H   ILE     9      57.756  37.002  44.141  1.00 99.99     0.164 HD
BRANCH  57  59
ATOM     59  CA  ILE     9      56.711  36.429  45.886  1.00  0.00     0.159 C 
BRANCH  59  60
ATOM     60  C   ILE     9      57.504  37.036  47.063  1.00  0.00     0.251 C 
ATOM     61  O   ILE     9      56.942  37.236  48.139  1.00  0.00    -0.271 OA
ATOM     62  N   ASN    10      58.734  37.473  46.809  1.00  0.00    -0.337 N 
ATOM     63  H   ASN    10      59.191  37.333  45.928  1.00 99.99     0.164 HD
BRANCH  62  64
ATOM     64  CA  ASN    10      59.520  38.181  47.837  1.00  0.00     0.169 C 
BRANCH  64  65
ATOM     65  CB  ASN    10      60.261  37.189  48.736  1.00  0.00     0.119 C 
BRANCH  65  66
ATOM     66  CG  ASN    10      60.229  37.625  50.210  1.00  0.00     0.230 C 
ATOM     67  ND2 ASN    10      59.843  36.715  51.073  1.00  0.00    -0.369 N 
ATOM     68 1HD2 ASN    10      59.822  36.991  52.030  1.00 99.99     0.159 HD
ATOM     69 2HD2 ASN    10      59.607  35.797  50.775  1.00 99.99     0.159 HD
ATOM     70  OD1 ASN    10      60.610  38.718  50.605  1.00  0.00    -0.273 OA
ENDBRANCH  65  66
ENDBRANCH  64  65
BRANCH  64  71
ATOM     71  C   ASN    10      60.431  39.270  47.244  1.00  0.00     0.251 C 
ATOM     72  O   ASN    10      61.038  39.042  46.198  1.00  0.00    -0.271 OA
ATOM     73  N   SER    11      60.724  40.298  48.045  1.00  0.00    -0.336 N 
ATOM     74  H   SER    11      60.257  40.435  48.924  1.00 99.99     0.164 HD
BRANCH  73  75
ATOM     75  CA  SER    11      61.645  41.399  47.674  1.00  0.00     0.189 C 
BRANCH  75  76
ATOM     76  C   SER    11      62.545  41.867  48.831  1.00  0.00     0.253 C 
ATOM     77  N   LEU    12      62.164  42.977  49.464  1.00  0.00    -0.337 N 
ATOM     78  H   LEU    12      61.406  43.540  49.120  1.00 99.99     0.164 HD
ATOM     79  O   SER    11      63.566  41.244  49.106  1.00  0.00    -0.270 OA
BRANCH  77  80
ATOM     80  CA  LEU    12      62.863  43.551  50.635  1.00  0.00     0.159 C 
BRANCH  80  81
ATOM     81  C   LEU    12      62.511  42.976  52.016  1.00  0.00     0.251 C 
ATOM     82  O   LEU    12      61.792  43.623  52.776  1.00  0.00    -0.271 OA
ATOM     83  N   PHE    13      62.868  41.714  52.242  1.00  0.00    -0.337 N 
ATOM     84  H   PHE    13      63.266  41.140  51.527  1.00 99.99     0.164 HD
BRANCH  83  85
ATOM     85  CA  PHE    13      62.566  41.026  53.511  1.00  0.00     0.164 C 
BRANCH  85  86
ATOM     86  C   PHE    13      61.059  40.822  53.761  1.00  0.00     0.251 C 
ATOM     87  O   PHE    13      60.670  40.540  54.893  1.00  0.00    -0.271 OA
ATOM     88  N   GLY    14      60.260  40.836  52.682  1.00  0.00    -0.336 N 
ATOM     89  H   GLY    14      60.604  40.839  51.733  1.00 99.99     0.164 HD
BRANCH  88  90
ATOM     90  CA  GLY    14      58.787  40.801  52.788  1.00  0.00     0.189 C 
BRANCH  90  91
ATOM     91  C   GLY    14      58.154  41.288  51.476  1.00  0.00     0.253 C 
ATOM     92  N   ARG    15      56.847  41.525  51.538  1.00  0.00    -0.336 N 
ATOM     93  H   ARG    15      56.365  41.542  52.413  1.00 99.99     0.164 HD
ATOM     94  O   GLY    14      58.815  41.410  50.450  1.00  0.00    -0.270 OA
BRANCH  92  95
ATOM     95  CA  ARG    15      56.028  41.893  50.358  1.00  0.00     0.168 C 
BRANCH  95  96
ATOM     96  C   ARG    15      55.766  43.407  50.321  1.00  0.00     0.206 C 
ATOM     97  O   ARG    15      55.425  43.980  51.378  1.00 99.99    -0.646 OA
ATOM     98  OXT ARG    15      55.928  43.947  49.204  1.00 99.99    -0.646 OA
ENDBRANCH  95  96
BRANCH  95  99
ATOM     99  CB  ARG    15      54.656  41.210  50.427  1.00  0.00     0.035 C 
BRANCH  99 100
ATOM    100  CG  ARG    15      53.984  40.948  49.078  1.00  0.00     0.027 C 
BRANCH 100 101
ATOM    101  CD  ARG    15      54.897  40.254  48.073  1.00  0.00     0.116 C 
BRANCH 101 102
ATOM    102  NE  ARG    15      54.031  39.404  47.243  1.00  0.00    -0.212 N 
ATOM    103  CZ  ARG    15      53.663  38.148  47.494  1.00  0.00     0.666 C 
ATOM    104  NH2 ARG    15      52.690  37.606  46.778  1.00  0.00    -0.235 N 
ATOM    105  NH1 ARG    15      54.108  37.482  48.550  1.00  0.00    -0.235 N 
ATOM    106 1HH2 ARG    15      52.402  36.670  46.967  1.00 99.99     0.174 HD
ATOM    107 2HH2 ARG    15      52.220  38.149  46.085  1.00 99.99     0.174 HD
ATOM    108 2HH1 ARG    15      54.710  37.950  49.193  1.00 99.99     0.174 HD
ATOM    109 1HH1 ARG    15      53.806  36.548  48.724  1.00 99.99     0.174 HD
ATOM    110  HE  ARG    15      53.751  39.812  46.373  1.00 99.99     0.178 HD
ENDBRANCH 101 102
ENDBRANCH 100 101
ENDBRANCH  99 100
ENDBRANCH  95  99
ENDBRANCH  92  95
ENDBRANCH  90  91
ENDBRANCH  88  90
ENDBRANCH  85  86
BRANCH  85 111
ATOM    111  CB  PHE    13      63.240  41.812  54.645  1.00  0.00     0.056 C 
BRANCH 111 112
ATOM    112  CG  PHE    13      64.186  40.969  55.502  1.00  0.00    -0.044 A 
ATOM    113  CD2 PHE    13      63.828  40.684  56.812  1.00  0.00     0.008 A 
ATOM    114  CE2 PHE    13      64.671  39.942  57.625  1.00  0.00     0.001 A 
ATOM    115  CZ  PHE    13      65.882  39.479  57.126  1.00  0.00     0.000 A 
ATOM    116  CE1 PHE    13      66.243  39.759  55.812  1.00  0.00     0.001 A 
ATOM    117  CD1 PHE    13      65.400  40.511  55.000  1.00  0.00     0.008 A 
ENDBRANCH 111 112
ENDBRANCH  85 111
ENDBRANCH  83  85
ENDBRANCH  80  81
BRANCH  80 118
ATOM    118  CB  LEU    12      62.663  45.066  50.678  1.00  0.00     0.032 C 
BRANCH 118 119
ATOM    119  CG  LEU    12      63.910  45.855  50.277  1.00  0.00     0.002 C 
ATOM    120  CD2 LEU    12      63.574  47.046  49.371  1.00  0.00     0.000 C 
ATOM    121  CD1 LEU    12      64.830  44.904  49.525  1.00  0.00     0.000 C 
ENDBRANCH 118 119
ENDBRANCH  80 118
ENDBRANCH  77  80
ENDBRANCH  75  76
BRANCH  75 122
ATOM    122  CB  SER    11      60.863  42.616  47.166  1.00  0.00     0.169 C 
BRANCH 122 123
ATOM    123  OG  SER    11      59.642  42.777  47.894  1.00  0.00    -0.380 OA
ATOM    124  HG  SER    11      59.535  42.008  48.523  1.00 99.99     0.211 HD
ENDBRANCH 122 123
ENDBRANCH  75 122
ENDBRANCH  73  75
ENDBRANCH  64  71
ENDBRANCH  62  64
ENDBRANCH  59  60
BRANCH  59 125
ATOM    125  CB  ILE     9      56.887  34.896  45.723  1.00  0.00     0.029 C 
ATOM    126  CG2 ILE     9      57.468  34.497  44.363  1.00  0.00     0.002 C 
BRANCH 125 127
ATOM    127  CG1 ILE     9      57.726  34.238  46.834  1.00  0.00     0.002 C 
ATOM    128  CD  ILE     9      57.043  34.182  48.205  1.00  0.00     0.000 C 
ENDBRANCH 125 127
ENDBRANCH  59 125
ENDBRANCH  57  59
ENDBRANCH  54  55
BRANCH  54 129
ATOM    129  CB  ILE     8      56.878  37.876  41.708  1.00  0.00     0.029 C 
ATOM    130  CG2 ILE     8      55.904  36.774  41.255  1.00  0.00     0.002 C 
BRANCH 129 131
ATOM    131  CG1 ILE     8      57.278  38.758  40.509  1.00  0.00     0.002 C 
ATOM    132  CD  ILE     8      58.229  38.099  39.499  1.00  0.00     0.000 C 
ENDBRANCH 129 131
ENDBRANCH  54 129
ENDBRANCH  52  54
ENDBRANCH  49  50
BRANCH  49 133
ATOM    133  CB  ASN     7      57.999  42.322  44.210  1.00  0.00     0.119 C 
BRANCH 133 134
ATOM    134  CG  ASN     7      58.603  43.637  44.739  1.00  0.00     0.230 C 
ATOM    135  ND2 ASN     7      58.060  44.134  45.824  1.00  0.00    -0.369 N 
ATOM    136 1HD2 ASN     7      58.451  44.985  46.169  1.00 99.99     0.159 HD
ATOM    137 2HD2 ASN     7      57.289  43.690  46.271  1.00 99.99     0.159 HD
ATOM    138  OD1 ASN     7      59.444  44.288  44.133  1.00  0.00    -0.273 OA
ENDBRANCH 133 134
ENDBRANCH  49 133
ENDBRANCH  47  49
ENDBRANCH  36  45
ENDBRANCH  33  36
ENDBRANCH  31  32
BRANCH  31 139
ATOM    139  CB  LYS     5      63.856  38.577  41.459  1.00  0.00     0.032 C 
BRANCH 139 140
ATOM    140  CG  LYS     5      65.202  38.159  40.855  1.00  0.00     0.004 C 
BRANCH 140 141
ATOM    141  CD  LYS     5      65.012  37.447  39.513  1.00  0.00     0.032 C 
BRANCH 141 142
ATOM    142  CE  LYS     5      64.669  38.446  38.406  1.00  0.00     0.206 C 
BRANCH 142 143
ATOM    143  NZ  LYS     5      63.301  38.255  37.898  1.00  0.00    -0.064 N 
ATOM    144  HZ3 LYS     5      62.857  39.142  37.773  1.00 99.99     0.275 HD
ATOM    145  HZ1 LYS     5      63.338  37.780  37.018  1.00 99.99     0.275 HD
ATOM    146  HZ2 LYS     5      62.772  37.704  38.544  1.00 99.99     0.275 HD
ENDBRANCH 142 143
ENDBRANCH 141 142
ENDBRANCH 140 141
ENDBRANCH 139 140
ENDBRANCH  31 139
ENDBRANCH  29  31
ENDBRANCH  24  27
ENDBRANCH  19  20
BRANCH  19 147
ATOM    147  CB  PHE     3      69.200  40.402  44.817  1.00  0.00     0.056 C 
BRANCH 147 148
ATOM    148  CG  PHE     3      69.933  41.657  44.329  1.00  0.00    -0.044 A 
ATOM    149  CD2 PHE     3      70.483  41.597  43.058  1.00  0.00     0.008 A 
ATOM    150  CE2 PHE     3      71.093  42.704  42.488  1.00  0.00     0.001 A 
ATOM    151  CZ  PHE     3      71.145  43.900  43.189  1.00  0.00     0.000 A 
ATOM    152  CE1 PHE     3      70.594  43.975  44.461  1.00  0.00     0.001 A 
ATOM    153  CD1 PHE     3      69.984  42.863  45.030  1.00  0.00     0.008 A 
ENDBRANCH 147 148
ENDBRANCH  19 147
ENDBRANCH  17  19
ENDBRANCH  10  15
ENDBRANCH   8  10
ENDBRANCH   5   6
BRANCH   5 154
ATOM    154  CB  PHE     1      65.102  36.955  51.095  1.00  0.00     0.064 C 
BRANCH 154 155
ATOM    155  CG  PHE     1      64.770  37.016  52.586  1.00  0.00    -0.044 A 
ATOM    156  CD2 PHE     1      63.510  37.430  53.007  1.00  0.00     0.008 A 
ATOM    157  CE2 PHE     1      63.172  37.369  54.353  1.00  0.00     0.001 A 
ATOM    158  CZ  PHE     1      64.094  36.899  55.280  1.00  0.00     0.000 A 
ATOM    159  CE1 PHE     1      65.358  36.503  54.862  1.00  0.00     0.001 A 
ATOM    160  CD1 PHE     1      65.702  36.571  53.518  1.00  0.00     0.008 A 
ENDBRANCH 154 155
ENDBRANCH   5 154
ENDBRANCH   1   5
TORSDOF 63
ENDMDL
