MODEL 1
REMARK VINA RESULT:      -5.6      0.000      0.000
REMARK  22 active torsions:
REMARK  status: ('A' for Active; 'I' for Inactive)
REMARK    1  A    between atoms: N_1  and  CA_2 
REMARK    2  A    between atoms: CA_2  and  CB_5 
REMARK    3  A    between atoms: CA_2  and  C_3 
REMARK       I    between atoms: C_3  and  N_12 
REMARK    4  A    between atoms: CB_5  and  OG1_6 
REMARK    5  A    between atoms: N_12  and  CA_13 
REMARK    6  A    between atoms: CA_13  and  C_14 
REMARK    7  A    between atoms: CA_13  and  CB_16 
REMARK       I    between atoms: C_14  and  N_20 
REMARK    8  A    between atoms: N_20  and  CA_21 
REMARK    9  A    between atoms: CA_21  and  C_22 
REMARK   10  A    between atoms: CA_21  and  CB_24 
REMARK       I    between atoms: C_22  and  N_34 
REMARK   11  A    between atoms: CB_24  and  CG_25 
REMARK   12  A    between atoms: CZ_30  and  OH_31 
REMARK   13  A    between atoms: N_34  and  CA_35 
REMARK   14  A    between atoms: CA_35  and  C_36 
REMARK   15  A    between atoms: CA_35  and  CB_38 
REMARK       I    between atoms: C_36  and  N_43 
REMARK   16  A    between atoms: CB_38  and  OG1_39 
REMARK   17  A    between atoms: N_43  and  CA_44 
REMARK   18  A    between atoms: CA_44  and  CB_47 
REMARK   19  A    between atoms: CA_44  and  C_45 
REMARK       I    between atoms: C_45  and  N_54 
REMARK   20  A    between atoms: CB_47  and  CG_48 
REMARK       I    between atoms: CG_48  and  ND2_50 
REMARK   21  A    between atoms: N_54  and  CA_55 
REMARK   22  A    between atoms: CA_55  and  C_56 
ROOT
ATOM      1  N   THR     1      57.058  39.219  46.838  1.00  0.00    -0.055 N 
ATOM      2  H1  THR     1      56.386  39.928  47.047  1.00 99.99     0.276 HD
ATOM      3  H2  THR     1      56.728  38.344  47.200  1.00 99.99     0.276 HD
ATOM      4  H3  THR     1      57.910  39.371  47.304  1.00 99.99     0.276 HD
ENDROOT
BRANCH   1   5
ATOM      5  CA  THR     1      57.232  39.080  45.369  1.00  0.00     0.281 C 
BRANCH   5   6
ATOM      6  CB  THR     1      56.023  39.715  44.655  1.00  0.00     0.148 C 
ATOM      7  CG2 THR     1      54.963  40.226  45.634  1.00  0.00     0.034 C 
BRANCH   6   8
ATOM      8  OG1 THR     1      56.496  40.761  43.797  1.00  0.00    -0.382 OA
ATOM      9  HG1 THR     1      55.717  41.176  43.329  1.00 99.99     0.210 HD
ENDBRANCH   6   8
ENDBRANCH   5   6
BRANCH   5  10
ATOM     10  C   THR     1      58.520  39.705  44.775  1.00  0.00     0.261 C 
ATOM     11  O   THR     1      59.133  39.130  43.873  1.00  0.00    -0.270 OA
ATOM     12  N   VAL     2      59.052  40.754  45.414  1.00  0.00    -0.337 N 
ATOM     13  H   VAL     2      58.755  41.019  46.331  1.00 99.99     0.164 HD
BRANCH  12  14
ATOM     14  CA  VAL     2      60.125  41.598  44.824  1.00  0.00     0.159 C 
BRANCH  14  15
ATOM     15  C   VAL     2      61.116  42.122  45.887  1.00  0.00     0.251 C 
ATOM     16  O   VAL     2      62.273  42.371  45.561  1.00  0.00    -0.271 OA
ATOM     17  N   TYR     3      60.724  41.993  47.152  1.00  0.00    -0.337 N 
ATOM     18  H   TYR     3      59.787  41.729  47.365  1.00 99.99     0.164 HD
BRANCH  17  19
ATOM     19  CA  TYR     3      61.506  42.355  48.354  1.00  0.00     0.164 C 
BRANCH  19  20
ATOM     20  C   TYR     3      61.127  41.647  49.680  1.00  0.00     0.251 C 
ATOM     21  N   THR     4      60.076  42.123  50.344  1.00  0.00    -0.336 N 
ATOM     22  H   THR     4      59.618  42.970  50.078  1.00 99.99     0.164 HD
ATOM     23  O   TYR     3      61.847  40.758  50.125  1.00  0.00    -0.271 OA
BRANCH  21  24
ATOM     24  CA  THR     4      59.519  41.530  51.587  1.00  0.00     0.186 C 
BRANCH  24  25
ATOM     25  C   THR     4      57.981  41.653  51.665  1.00  0.00     0.253 C 
ATOM     26  O   THR     4      57.401  41.608  52.748  1.00  0.00    -0.270 OA
ATOM     27  N   ASN     5      57.355  41.843  50.505  1.00  0.00    -0.337 N 
ATOM     28  H   ASN     5      57.866  41.790  49.644  1.00 99.99     0.164 HD
BRANCH  27  29
ATOM     29  CA  ASN     5      55.920  42.153  50.334  1.00  0.00     0.169 C 
BRANCH  29  30
ATOM     30  CB  ASN     5      55.759  43.152  49.180  1.00  0.00     0.119 C 
BRANCH  30  31
ATOM     31  CG  ASN     5      56.892  43.227  48.150  1.00  0.00     0.230 C 
ATOM     32  OD1 ASN     5      57.490  42.260  47.697  1.00  0.00    -0.273 OA
ATOM     33  ND2 ASN     5      57.061  44.418  47.619  1.00  0.00    -0.369 N 
ATOM     34 2HD2 ASN     5      56.470  45.171  47.891  1.00 99.99     0.159 HD
ATOM     35 1HD2 ASN     5      57.786  44.529  46.949  1.00 99.99     0.159 HD
ENDBRANCH  30  31
ENDBRANCH  29  30
BRANCH  29  36
ATOM     36  C   ASN     5      55.028  40.934  50.013  1.00  0.00     0.251 C 
ATOM     37  O   ASN     5      55.526  39.914  49.544  1.00  0.00    -0.271 OA
ATOM     38  N   ALA     6      53.767  41.007  50.446  1.00  0.00    -0.336 N 
ATOM     39  H   ALA     6      53.447  41.838  50.906  1.00 99.99     0.164 HD
BRANCH  38  40
ATOM     40  CA  ALA     6      52.737  39.944  50.345  1.00  0.00     0.168 C 
ATOM     41  CB  ALA     6      52.607  39.462  48.891  1.00  0.00     0.036 C 
BRANCH  40  42
ATOM     42  C   ALA     6      53.128  38.729  51.206  1.00  0.00     0.206 C 
ATOM     43  O   ALA     6      52.913  37.588  50.744  1.00 99.99    -0.646 OA
ATOM     44  OXT ALA     6      53.536  38.982  52.362  1.00 99.99    -0.646 OA
ENDBRANCH  40  42
ENDBRANCH  38  40
ENDBRANCH  29  36
ENDBRANCH  27  29
ENDBRANCH  24  25
BRANCH  24  45
ATOM     45  CB  THR     4      60.103  42.227  52.829  1.00  0.00     0.140 C 
ATOM     46  CG2 THR     4      61.033  41.290  53.607  1.00  0.00     0.034 C 
BRANCH  45  47
ATOM     47  OG1 THR     4      60.828  43.411  52.470  1.00  0.00    -0.382 OA
ATOM     48  HG1 THR     4      61.805  43.193  52.474  1.00 99.99     0.210 HD
ENDBRANCH  45  47
ENDBRANCH  24  45
ENDBRANCH  21  24
ENDBRANCH  19  20
BRANCH  19  49
ATOM     49  CB  TYR     3      61.372  43.878  48.465  1.00  0.00     0.056 C 
BRANCH  49  50
ATOM     50  CG  TYR     3      62.599  44.571  49.050  1.00  0.00    -0.044 A 
ATOM     51  CD2 TYR     3      62.438  45.587  49.983  1.00  0.00     0.011 A 
ATOM     52  CE2 TYR     3      63.551  46.227  50.509  1.00  0.00     0.037 A 
ATOM     53  CZ  TYR     3      64.823  45.843  50.099  1.00  0.00     0.065 A 
ATOM     54  CE1 TYR     3      64.982  44.837  49.155  1.00  0.00     0.037 A 
ATOM     55  CD1 TYR     3      63.868  44.199  48.630  1.00  0.00     0.011 A 
BRANCH  53  56
ATOM     56  OH  TYR     3      65.919  46.478  50.590  1.00  0.00    -0.361 OA
ATOM     57  HH  TYR     3      66.273  47.101  49.895  1.00 99.99     0.217 HD
ENDBRANCH  53  56
ENDBRANCH  49  50
ENDBRANCH  19  49
ENDBRANCH  17  19
ENDBRANCH  14  15
BRANCH  14  58
ATOM     58  CB  VAL     2      59.549  42.715  43.922  1.00  0.00     0.029 C 
ATOM     59  CG2 VAL     2      60.547  43.117  42.829  1.00  0.00     0.002 C 
ATOM     60  CG1 VAL     2      59.191  43.978  44.718  1.00  0.00     0.002 C 
ENDBRANCH  14  58
ENDBRANCH  12  14
ENDBRANCH   5  10
ENDBRANCH   1   5
TORSDOF 22
ENDMDL
MODEL 2
REMARK VINA RESULT:      -5.5      2.369      7.331
REMARK  22 active torsions:
REMARK  status: ('A' for Active; 'I' for Inactive)
REMARK    1  A    between atoms: N_1  and  CA_2 
REMARK    2  A    between atoms: CA_2  and  CB_5 
REMARK    3  A    between atoms: CA_2  and  C_3 
REMARK       I    between atoms: C_3  and  N_12 
REMARK    4  A    between atoms: CB_5  and  OG1_6 
REMARK    5  A    between atoms: N_12  and  CA_13 
REMARK    6  A    between atoms: CA_13  and  C_14 
REMARK    7  A    between atoms: CA_13  and  CB_16 
REMARK       I    between atoms: C_14  and  N_20 
REMARK    8  A    between atoms: N_20  and  CA_21 
REMARK    9  A    between atoms: CA_21  and  C_22 
REMARK   10  A    between atoms: CA_21  and  CB_24 
REMARK       I    between atoms: C_22  and  N_34 
REMARK   11  A    between atoms: CB_24  and  CG_25 
REMARK   12  A    between atoms: CZ_30  and  OH_31 
REMARK   13  A    between atoms: N_34  and  CA_35 
REMARK   14  A    between atoms: CA_35  and  C_36 
REMARK   15  A    between atoms: CA_35  and  CB_38 
REMARK       I    between atoms: C_36  and  N_43 
REMARK   16  A    between atoms: CB_38  and  OG1_39 
REMARK   17  A    between atoms: N_43  and  CA_44 
REMARK   18  A    between atoms: CA_44  and  CB_47 
REMARK   19  A    between atoms: CA_44  and  C_45 
REMARK       I    between atoms: C_45  and  N_54 
REMARK   20  A    between atoms: CB_47  and  CG_48 
REMARK       I    between atoms: CG_48  and  ND2_50 
REMARK   21  A    between atoms: N_54  and  CA_55 
REMARK   22  A    between atoms: CA_55  and  C_56 
ROOT
ATOM      1  N   THR     1      64.417  41.717  46.251  1.00  0.00    -0.055 N 
ATOM      2  H1  THR     1      64.375  41.100  45.466  1.00 99.99     0.276 HD
ATOM      3  H2  THR     1      63.631  42.338  46.218  1.00 99.99     0.276 HD
ATOM      4  H3  THR     1      65.200  42.310  46.211  1.00 99.99     0.276 HD
ENDROOT
BRANCH   1   5
ATOM      5  CA  THR     1      64.353  40.950  47.522  1.00  0.00     0.281 C 
BRANCH   5   6
ATOM      6  CB  THR     1      65.656  41.172  48.313  1.00  0.00     0.148 C 
ATOM      7  CG2 THR     1      66.390  42.447  47.892  1.00  0.00     0.034 C 
BRANCH   6   8
ATOM      8  OG1 THR     1      65.348  41.177  49.712  1.00  0.00    -0.382 OA
ATOM      9  HG1 THR     1      64.736  40.413  49.914  1.00 99.99     0.210 HD
ENDBRANCH   6   8
ENDBRANCH   5   6
BRANCH   5  10
ATOM     10  C   THR     1      63.164  41.286  48.458  1.00  0.00     0.261 C 
ATOM     11  O   THR     1      62.540  40.384  49.021  1.00  0.00    -0.270 OA
ATOM     12  N   VAL     2      62.711  42.545  48.459  1.00  0.00    -0.337 N 
ATOM     13  H   VAL     2      62.989  43.206  47.762  1.00 99.99     0.164 HD
BRANCH  12  14
ATOM     14  CA  VAL     2      61.757  43.059  49.478  1.00  0.00     0.159 C 
BRANCH  14  15
ATOM     15  C   VAL     2      60.283  42.870  49.056  1.00  0.00     0.251 C 
ATOM     16  O   VAL     2      59.576  42.080  49.673  1.00  0.00    -0.271 OA
ATOM     17  N   TYR     3      59.958  43.366  47.863  1.00  0.00    -0.337 N 
ATOM     18  H   TYR     3      60.594  43.956  47.373  1.00 99.99     0.164 HD
BRANCH  17  19
ATOM     19  CA  TYR     3      58.640  43.265  47.202  1.00  0.00     0.164 C 
BRANCH  19  20
ATOM     20  C   TYR     3      57.403  43.699  48.029  1.00  0.00     0.251 C 
ATOM     21  N   THR     4      56.763  42.750  48.710  1.00  0.00    -0.336 N 
ATOM     22  H   THR     4      56.983  41.781  48.604  1.00 99.99     0.164 HD
ATOM     23  O   TYR     3      56.992  44.854  47.956  1.00  0.00    -0.271 OA
BRANCH  21  24
ATOM     24  CA  THR     4      55.610  42.987  49.615  1.00  0.00     0.186 C 
BRANCH  24  25
ATOM     25  C   THR     4      56.031  43.094  51.098  1.00  0.00     0.253 C 
ATOM     26  O   THR     4      55.494  43.906  51.847  1.00  0.00    -0.270 OA
ATOM     27  N   ASN     5      56.967  42.234  51.496  1.00  0.00    -0.337 N 
ATOM     28  H   ASN     5      57.430  41.649  50.827  1.00 99.99     0.164 HD
BRANCH  27  29
ATOM     29  CA  ASN     5      57.417  42.027  52.889  1.00  0.00     0.169 C 
BRANCH  29  30
ATOM     30  CB  ASN     5      56.971  40.634  53.355  1.00  0.00     0.119 C 
BRANCH  30  31
ATOM     31  CG  ASN     5      55.745  40.558  54.273  1.00  0.00     0.230 C 
ATOM     32  OD1 ASN     5      55.787  40.546  55.496  1.00  0.00    -0.273 OA
ATOM     33  ND2 ASN     5      54.595  40.704  53.652  1.00  0.00    -0.369 N 
ATOM     34 2HD2 ASN     5      54.579  40.858  52.669  1.00 99.99     0.159 HD
ATOM     35 1HD2 ASN     5      53.764  40.657  54.195  1.00 99.99     0.159 HD
ENDBRANCH  30  31
ENDBRANCH  29  30
BRANCH  29  36
ATOM     36  C   ASN     5      58.945  42.112  53.096  1.00  0.00     0.251 C 
ATOM     37  O   ASN     5      59.529  43.180  52.936  1.00  0.00    -0.271 OA
ATOM     38  N   ALA     6      59.521  41.029  53.625  1.00  0.00    -0.336 N 
ATOM     39  H   ALA     6      58.967  40.217  53.818  1.00 99.99     0.164 HD
BRANCH  38  40
ATOM     40  CA  ALA     6      60.948  40.886  54.004  1.00  0.00     0.168 C 
ATOM     41  CB  ALA     6      61.116  39.761  55.038  1.00  0.00     0.036 C 
BRANCH  40  42
ATOM     42  C   ALA     6      61.799  40.519  52.774  1.00  0.00     0.206 C 
ATOM     43  O   ALA     6      62.761  41.261  52.484  1.00 99.99    -0.646 OA
ATOM     44  OXT ALA     6      61.388  39.555  52.088  1.00 99.99    -0.646 OA
ENDBRANCH  40  42
ENDBRANCH  38  40
ENDBRANCH  29  36
ENDBRANCH  27  29
ENDBRANCH  24  25
BRANCH  24  45
ATOM     45  CB  THR     4      54.590  41.839  49.505  1.00  0.00     0.140 C 
ATOM     46  CG2 THR     4      55.186  40.635  48.768  1.00  0.00     0.034 C 
BRANCH  45  47
ATOM     47  OG1 THR     4      54.140  41.416  50.799  1.00  0.00    -0.382 OA
ATOM     48  HG1 THR     4      53.190  41.711  50.913  1.00 99.99     0.210 HD
ENDBRANCH  45  47
ENDBRANCH  24  45
ENDBRANCH  21  24
ENDBRANCH  19  20
BRANCH  19  49
ATOM     49  CB  TYR     3      58.537  41.803  46.752  1.00  0.00     0.056 C 
BRANCH  49  50
ATOM     50  CG  TYR     3      58.359  41.626  45.247  1.00  0.00    -0.044 A 
ATOM     51  CD2 TYR     3      57.583  40.581  44.762  1.00  0.00     0.011 A 
ATOM     52  CE2 TYR     3      57.429  40.409  43.393  1.00  0.00     0.037 A 
ATOM     53  CZ  TYR     3      58.051  41.290  42.516  1.00  0.00     0.065 A 
ATOM     54  CE1 TYR     3      58.840  42.325  43.000  1.00  0.00     0.037 A 
ATOM     55  CD1 TYR     3      58.994  42.494  44.369  1.00  0.00     0.011 A 
BRANCH  53  56
ATOM     56  OH  TYR     3      57.927  41.118  41.174  1.00  0.00    -0.361 OA
ATOM     57  HH  TYR     3      57.832  42.010  40.738  1.00 99.99     0.217 HD
ENDBRANCH  53  56
ENDBRANCH  49  50
ENDBRANCH  19  49
ENDBRANCH  17  19
ENDBRANCH  14  15
BRANCH  14  58
ATOM     58  CB  VAL     2      62.091  44.509  49.901  1.00  0.00     0.029 C 
ATOM     59  CG2 VAL     2      63.185  45.108  49.009  1.00  0.00     0.002 C 
ATOM     60  CG1 VAL     2      62.574  44.594  51.355  1.00  0.00     0.002 C 
ENDBRANCH  14  58
ENDBRANCH  12  14
ENDBRANCH   5  10
ENDBRANCH   1   5
TORSDOF 22
ENDMDL
MODEL 3
REMARK VINA RESULT:      -5.4      2.730      7.862
REMARK  22 active torsions:
REMARK  status: ('A' for Active; 'I' for Inactive)
REMARK    1  A    between atoms: N_1  and  CA_2 
REMARK    2  A    between atoms: CA_2  and  CB_5 
REMARK    3  A    between atoms: CA_2  and  C_3 
REMARK       I    between atoms: C_3  and  N_12 
REMARK    4  A    between atoms: CB_5  and  OG1_6 
REMARK    5  A    between atoms: N_12  and  CA_13 
REMARK    6  A    between atoms: CA_13  and  C_14 
REMARK    7  A    between atoms: CA_13  and  CB_16 
REMARK       I    between atoms: C_14  and  N_20 
REMARK    8  A    between atoms: N_20  and  CA_21 
REMARK    9  A    between atoms: CA_21  and  C_22 
REMARK   10  A    between atoms: CA_21  and  CB_24 
REMARK       I    between atoms: C_22  and  N_34 
REMARK   11  A    between atoms: CB_24  and  CG_25 
REMARK   12  A    between atoms: CZ_30  and  OH_31 
REMARK   13  A    between atoms: N_34  and  CA_35 
REMARK   14  A    between atoms: CA_35  and  C_36 
REMARK   15  A    between atoms: CA_35  and  CB_38 
REMARK       I    between atoms: C_36  and  N_43 
REMARK   16  A    between atoms: CB_38  and  OG1_39 
REMARK   17  A    between atoms: N_43  and  CA_44 
REMARK   18  A    between atoms: CA_44  and  CB_47 
REMARK   19  A    between atoms: CA_44  and  C_45 
REMARK       I    between atoms: C_45  and  N_54 
REMARK   20  A    between atoms: CB_47  and  CG_48 
REMARK       I    between atoms: CG_48  and  ND2_50 
REMARK   21  A    between atoms: N_54  and  CA_55 
REMARK   22  A    between atoms: CA_55  and  C_56 
ROOT
ATOM      1  N   THR     1      64.977  43.740  49.549  1.00  0.00    -0.055 N 
ATOM      2  H1  THR     1      65.946  43.814  49.314  1.00 99.99     0.276 HD
ATOM      3  H2  THR     1      64.813  44.236  50.404  1.00 99.99     0.276 HD
ATOM      4  H3  THR     1      64.717  42.814  49.749  1.00 99.99     0.276 HD
ENDROOT
BRANCH   1   5
ATOM      5  CA  THR     1      64.134  44.349  48.487  1.00  0.00     0.281 C 
BRANCH   5   6
ATOM      6  CB  THR     1      64.218  45.883  48.594  1.00  0.00     0.148 C 
ATOM      7  CG2 THR     1      63.468  46.430  49.811  1.00  0.00     0.034 C 
BRANCH   6   8
ATOM      8  OG1 THR     1      65.598  46.267  48.608  1.00  0.00    -0.382 OA
ATOM      9  HG1 THR     1      66.003  46.059  47.719  1.00 99.99     0.210 HD
ENDBRANCH   6   8
ENDBRANCH   5   6
BRANCH   5  10
ATOM     10  C   THR     1      64.485  43.952  47.030  1.00  0.00     0.261 C 
ATOM     11  O   THR     1      65.362  44.560  46.413  1.00  0.00    -0.270 OA
ATOM     12  N   VAL     2      63.669  43.092  46.408  1.00  0.00    -0.337 N 
ATOM     13  H   VAL     2      62.773  42.852  46.780  1.00 99.99     0.164 HD
BRANCH  12  14
ATOM     14  CA  VAL     2      64.019  42.439  45.118  1.00  0.00     0.159 C 
BRANCH  14  15
ATOM     15  C   VAL     2      62.938  42.652  44.036  1.00  0.00     0.251 C 
ATOM     16  O   VAL     2      63.279  42.824  42.870  1.00  0.00    -0.271 OA
ATOM     17  N   TYR     3      61.716  42.923  44.489  1.00  0.00    -0.337 N 
ATOM     18  H   TYR     3      61.504  42.825  45.458  1.00 99.99     0.164 HD
BRANCH  17  19
ATOM     19  CA  TYR     3      60.524  43.228  43.668  1.00  0.00     0.164 C 
BRANCH  19  20
ATOM     20  C   TYR     3      59.171  43.357  44.412  1.00  0.00     0.251 C 
ATOM     21  N   THR     4      58.742  42.290  45.085  1.00  0.00    -0.336 N 
ATOM     22  H   THR     4      59.199  41.403  45.020  1.00 99.99     0.164 HD
ATOM     23  O   TYR     3      58.496  44.374  44.282  1.00  0.00    -0.271 OA
BRANCH  21  24
ATOM     24  CA  THR     4      57.513  42.250  45.917  1.00  0.00     0.186 C 
BRANCH  24  25
ATOM     25  C   THR     4      57.740  42.815  47.337  1.00  0.00     0.253 C 
ATOM     26  O   THR     4      58.092  43.981  47.501  1.00  0.00    -0.270 OA
ATOM     27  N   ASN     5      57.494  41.975  48.341  1.00  0.00    -0.337 N 
ATOM     28  H   ASN     5      57.290  41.012  48.151  1.00 99.99     0.164 HD
BRANCH  27  29
ATOM     29  CA  ASN     5      57.477  42.321  49.778  1.00  0.00     0.169 C 
BRANCH  29  30
ATOM     30  CB  ASN     5      56.176  41.797  50.402  1.00  0.00     0.119 C 
BRANCH  30  31
ATOM     31  CG  ASN     5      54.910  42.639  50.202  1.00  0.00     0.230 C 
ATOM     32  OD1 ASN     5      53.838  42.207  49.802  1.00  0.00    -0.273 OA
ATOM     33  ND2 ASN     5      54.992  43.860  50.684  1.00  0.00    -0.369 N 
ATOM     34 2HD2 ASN     5      55.826  44.158  51.140  1.00 99.99     0.159 HD
ATOM     35 1HD2 ASN     5      54.204  44.456  50.578  1.00 99.99     0.159 HD
ENDBRANCH  30  31
ENDBRANCH  29  30
BRANCH  29  36
ATOM     36  C   ASN     5      58.647  41.738  50.599  1.00  0.00     0.251 C 
ATOM     37  O   ASN     5      58.458  40.777  51.341  1.00  0.00    -0.271 OA
ATOM     38  N   ALA     6      59.859  42.215  50.305  1.00  0.00    -0.336 N 
ATOM     39  H   ALA     6      59.954  42.940  49.620  1.00 99.99     0.164 HD
BRANCH  38  40
ATOM     40  CA  ALA     6      61.149  41.763  50.882  1.00  0.00     0.168 C 
ATOM     41  CB  ALA     6      62.176  41.516  49.766  1.00  0.00     0.036 C 
BRANCH  40  42
ATOM     42  C   ALA     6      61.728  42.838  51.820  1.00  0.00     0.206 C 
ATOM     43  O   ALA     6      60.992  43.286  52.724  1.00 99.99    -0.646 OA
ATOM     44  OXT ALA     6      62.870  43.264  51.530  1.00 99.99    -0.646 OA
ENDBRANCH  40  42
ENDBRANCH  38  40
ENDBRANCH  29  36
ENDBRANCH  27  29
ENDBRANCH  24  25
BRANCH  24  45
ATOM     45  CB  THR     4      57.009  40.803  46.070  1.00  0.00     0.140 C 
ATOM     46  CG2 THR     4      56.189  40.369  44.850  1.00  0.00     0.034 C 
BRANCH  45  47
ATOM     47  OG1 THR     4      58.099  39.888  46.249  1.00  0.00    -0.382 OA
ATOM     48  HG1 THR     4      58.654  40.209  47.017  1.00 99.99     0.210 HD
ENDBRANCH  45  47
ENDBRANCH  24  45
ENDBRANCH  21  24
ENDBRANCH  19  20
BRANCH  19  49
ATOM     49  CB  TYR     3      60.486  42.121  42.607  1.00  0.00     0.056 C 
BRANCH  49  50
ATOM     50  CG  TYR     3      59.979  42.582  41.244  1.00  0.00    -0.044 A 
ATOM     51  CD2 TYR     3      59.622  41.641  40.287  1.00  0.00     0.011 A 
ATOM     52  CE2 TYR     3      59.171  42.056  39.041  1.00  0.00     0.037 A 
ATOM     53  CZ  TYR     3      59.076  43.415  38.763  1.00  0.00     0.065 A 
ATOM     54  CE1 TYR     3      59.447  44.355  39.715  1.00  0.00     0.037 A 
ATOM     55  CD1 TYR     3      59.899  43.937  40.959  1.00  0.00     0.011 A 
BRANCH  53  56
ATOM     56  OH  TYR     3      58.659  43.833  37.539  1.00  0.00    -0.361 OA
ATOM     57  HH  TYR     3      58.229  44.729  37.629  1.00 99.99     0.217 HD
ENDBRANCH  53  56
ENDBRANCH  49  50
ENDBRANCH  19  49
ENDBRANCH  17  19
ENDBRANCH  14  15
BRANCH  14  58
ATOM     58  CB  VAL     2      64.406  40.953  45.313  1.00  0.00     0.029 C 
ATOM     59  CG2 VAL     2      63.612  40.318  46.461  1.00  0.00     0.002 C 
ATOM     60  CG1 VAL     2      65.899  40.778  45.623  1.00  0.00     0.002 C 
ENDBRANCH  14  58
ENDBRANCH  12  14
ENDBRANCH   5  10
ENDBRANCH   1   5
TORSDOF 22
ENDMDL
MODEL 4
REMARK VINA RESULT:      -5.3      2.458      7.242
REMARK  22 active torsions:
REMARK  status: ('A' for Active; 'I' for Inactive)
REMARK    1  A    between atoms: N_1  and  CA_2 
REMARK    2  A    between atoms: CA_2  and  CB_5 
REMARK    3  A    between atoms: CA_2  and  C_3 
REMARK       I    between atoms: C_3  and  N_12 
REMARK    4  A    between atoms: CB_5  and  OG1_6 
REMARK    5  A    between atoms: N_12  and  CA_13 
REMARK    6  A    between atoms: CA_13  and  C_14 
REMARK    7  A    between atoms: CA_13  and  CB_16 
REMARK       I    between atoms: C_14  and  N_20 
REMARK    8  A    between atoms: N_20  and  CA_21 
REMARK    9  A    between atoms: CA_21  and  C_22 
REMARK   10  A    between atoms: CA_21  and  CB_24 
REMARK       I    between atoms: C_22  and  N_34 
REMARK   11  A    between atoms: CB_24  and  CG_25 
REMARK   12  A    between atoms: CZ_30  and  OH_31 
REMARK   13  A    between atoms: N_34  and  CA_35 
REMARK   14  A    between atoms: CA_35  and  C_36 
REMARK   15  A    between atoms: CA_35  and  CB_38 
REMARK       I    between atoms: C_36  and  N_43 
REMARK   16  A    between atoms: CB_38  and  OG1_39 
REMARK   17  A    between atoms: N_43  and  CA_44 
REMARK   18  A    between atoms: CA_44  and  CB_47 
REMARK   19  A    between atoms: CA_44  and  C_45 
REMARK       I    between atoms: C_45  and  N_54 
REMARK   20  A    between atoms: CB_47  and  CG_48 
REMARK       I    between atoms: CG_48  and  ND2_50 
REMARK   21  A    between atoms: N_54  and  CA_55 
REMARK   22  A    between atoms: CA_55  and  C_56 
ROOT
ATOM      1  N   THR     1      56.478  43.010  48.520  1.00  0.00    -0.055 N 
ATOM      2  H1  THR     1      56.427  42.116  48.076  1.00 99.99     0.276 HD
ATOM      3  H2  THR     1      56.154  43.709  47.879  1.00 99.99     0.276 HD
ATOM      4  H3  THR     1      57.405  43.270  48.718  1.00 99.99     0.276 HD
ENDROOT
BRANCH   1   5
ATOM      5  CA  THR     1      55.610  43.045  49.725  1.00  0.00     0.281 C 
BRANCH   5   6
ATOM      6  CB  THR     1      54.542  41.940  49.611  1.00  0.00     0.148 C 
ATOM      7  CG2 THR     1      54.935  40.842  48.620  1.00  0.00     0.034 C 
BRANCH   6   8
ATOM      8  OG1 THR     1      54.293  41.407  50.917  1.00  0.00    -0.382 OA
ATOM      9  HG1 THR     1      53.670  42.017  51.405  1.00 99.99     0.210 HD
ENDBRANCH   6   8
ENDBRANCH   5   6
BRANCH   5  10
ATOM     10  C   THR     1      56.331  42.873  51.087  1.00  0.00     0.261 C 
ATOM     11  O   THR     1      56.124  43.668  52.006  1.00  0.00    -0.270 OA
ATOM     12  N   VAL     2      57.327  41.982  51.153  1.00  0.00    -0.337 N 
ATOM     13  H   VAL     2      57.725  41.574  50.332  1.00 99.99     0.164 HD
BRANCH  12  14
ATOM     14  CA  VAL     2      57.928  41.539  52.440  1.00  0.00     0.159 C 
BRANCH  14  15
ATOM     15  C   VAL     2      59.327  42.148  52.679  1.00  0.00     0.251 C 
ATOM     16  O   VAL     2      59.419  43.280  53.146  1.00  0.00    -0.271 OA
ATOM     17  N   TYR     3      60.339  41.514  52.091  1.00  0.00    -0.337 N 
ATOM     18  H   TYR     3      60.199  40.621  51.673  1.00 99.99     0.164 HD
BRANCH  17  19
ATOM     19  CA  TYR     3      61.760  41.924  52.111  1.00  0.00     0.164 C 
BRANCH  19  20
ATOM     20  C   TYR     3      62.333  42.538  50.808  1.00  0.00     0.251 C 
ATOM     21  N   THR     4      61.806  43.689  50.395  1.00  0.00    -0.336 N 
ATOM     22  H   THR     4      60.996  44.087  50.826  1.00 99.99     0.164 HD
ATOM     23  O   TYR     3      63.162  41.915  50.151  1.00  0.00    -0.271 OA
BRANCH  21  24
ATOM     24  CA  THR     4      62.275  44.463  49.218  1.00  0.00     0.186 C 
BRANCH  24  25
ATOM     25  C   THR     4      62.582  43.562  48.000  1.00  0.00     0.253 C 
ATOM     26  O   THR     4      63.636  43.682  47.380  1.00  0.00    -0.270 OA
ATOM     27  N   ASN     5      61.658  42.649  47.708  1.00  0.00    -0.337 N 
ATOM     28  H   ASN     5      60.781  42.648  48.194  1.00 99.99     0.164 HD
BRANCH  27  29
ATOM     29  CA  ASN     5      61.790  41.572  46.704  1.00  0.00     0.169 C 
BRANCH  29  30
ATOM     30  CB  ASN     5      60.929  40.377  47.138  1.00  0.00     0.119 C 
BRANCH  30  31
ATOM     31  CG  ASN     5      60.507  40.311  48.611  1.00  0.00     0.230 C 
ATOM     32  OD1 ASN     5      59.541  40.890  49.089  1.00  0.00    -0.273 OA
ATOM     33  ND2 ASN     5      61.155  39.411  49.318  1.00  0.00    -0.369 N 
ATOM     34 2HD2 ASN     5      61.846  38.841  48.882  1.00 99.99     0.159 HD
ATOM     35 1HD2 ASN     5      60.930  39.327  50.282  1.00 99.99     0.159 HD
ENDBRANCH  30  31
ENDBRANCH  29  30
BRANCH  29  36
ATOM     36  C   ASN     5      61.350  41.959  45.276  1.00  0.00     0.251 C 
ATOM     37  O   ASN     5      62.194  42.193  44.414  1.00  0.00    -0.271 OA
ATOM     38  N   ALA     6      60.046  41.836  45.016  1.00  0.00    -0.336 N 
ATOM     39  H   ALA     6      59.419  41.551  45.744  1.00 99.99     0.164 HD
BRANCH  38  40
ATOM     40  CA  ALA     6      59.382  42.058  43.707  1.00  0.00     0.168 C 
ATOM     41  CB  ALA     6      57.900  41.659  43.785  1.00  0.00     0.036 C 
BRANCH  40  42
ATOM     42  C   ALA     6      59.445  43.546  43.315  1.00  0.00     0.206 C 
ATOM     43  O   ALA     6      59.057  44.390  44.150  1.00 99.99    -0.646 OA
ATOM     44  OXT ALA     6      59.782  43.789  42.133  1.00 99.99    -0.646 OA
ENDBRANCH  40  42
ENDBRANCH  38  40
ENDBRANCH  29  36
ENDBRANCH  27  29
ENDBRANCH  24  25
BRANCH  24  45
ATOM     45  CB  THR     4      63.562  45.237  49.556  1.00  0.00     0.140 C 
ATOM     46  CG2 THR     4      63.362  46.139  50.779  1.00  0.00     0.034 C 
BRANCH  45  47
ATOM     47  OG1 THR     4      64.656  44.346  49.808  1.00  0.00    -0.382 OA
ATOM     48  HG1 THR     4      64.700  44.175  50.794  1.00 99.99     0.210 HD
ENDBRANCH  45  47
ENDBRANCH  24  45
ENDBRANCH  21  24
ENDBRANCH  19  20
BRANCH  19  49
ATOM     49  CB  TYR     3      62.527  40.664  52.529  1.00  0.00     0.056 C 
BRANCH  49  50
ATOM     50  CG  TYR     3      63.315  40.815  53.826  1.00  0.00    -0.044 A 
ATOM     51  CD2 TYR     3      64.544  40.185  53.964  1.00  0.00     0.011 A 
ATOM     52  CE2 TYR     3      65.259  40.310  55.147  1.00  0.00     0.037 A 
ATOM     53  CZ  TYR     3      64.739  41.073  56.186  1.00  0.00     0.065 A 
ATOM     54  CE1 TYR     3      63.503  41.690  56.054  1.00  0.00     0.037 A 
ATOM     55  CD1 TYR     3      62.789  41.562  54.871  1.00  0.00     0.011 A 
BRANCH  53  56
ATOM     56  OH  TYR     3      65.418  41.184  57.357  1.00  0.00    -0.361 OA
ATOM     57  HH  TYR     3      65.719  40.278  57.649  1.00 99.99     0.217 HD
ENDBRANCH  53  56
ENDBRANCH  49  50
ENDBRANCH  19  49
ENDBRANCH  17  19
ENDBRANCH  14  15
BRANCH  14  58
ATOM     58  CB  VAL     2      57.898  39.999  52.588  1.00  0.00     0.029 C 
ATOM     59  CG2 VAL     2      57.332  39.331  51.329  1.00  0.00     0.002 C 
ATOM     60  CG1 VAL     2      57.045  39.547  53.782  1.00  0.00     0.002 C 
ENDBRANCH  14  58
ENDBRANCH  12  14
ENDBRANCH   5  10
ENDBRANCH   1   5
TORSDOF 22
ENDMDL
MODEL 5
REMARK VINA RESULT:      -5.3      1.961      3.455
REMARK  22 active torsions:
REMARK  status: ('A' for Active; 'I' for Inactive)
REMARK    1  A    between atoms: N_1  and  CA_2 
REMARK    2  A    between atoms: CA_2  and  CB_5 
REMARK    3  A    between atoms: CA_2  and  C_3 
REMARK       I    between atoms: C_3  and  N_12 
REMARK    4  A    between atoms: CB_5  and  OG1_6 
REMARK    5  A    between atoms: N_12  and  CA_13 
REMARK    6  A    between atoms: CA_13  and  C_14 
REMARK    7  A    between atoms: CA_13  and  CB_16 
REMARK       I    between atoms: C_14  and  N_20 
REMARK    8  A    between atoms: N_20  and  CA_21 
REMARK    9  A    between atoms: CA_21  and  C_22 
REMARK   10  A    between atoms: CA_21  and  CB_24 
REMARK       I    between atoms: C_22  and  N_34 
REMARK   11  A    between atoms: CB_24  and  CG_25 
REMARK   12  A    between atoms: CZ_30  and  OH_31 
REMARK   13  A    between atoms: N_34  and  CA_35 
REMARK   14  A    between atoms: CA_35  and  C_36 
REMARK   15  A    between atoms: CA_35  and  CB_38 
REMARK       I    between atoms: C_36  and  N_43 
REMARK   16  A    between atoms: CB_38  and  OG1_39 
REMARK   17  A    between atoms: N_43  and  CA_44 
REMARK   18  A    between atoms: CA_44  and  CB_47 
REMARK   19  A    between atoms: CA_44  and  C_45 
REMARK       I    between atoms: C_45  and  N_54 
REMARK   20  A    between atoms: CB_47  and  CG_48 
REMARK       I    between atoms: CG_48  and  ND2_50 
REMARK   21  A    between atoms: N_54  and  CA_55 
REMARK   22  A    between atoms: CA_55  and  C_56 
ROOT
ATOM      1  N   THR     1      57.495  39.909  46.887  1.00  0.00    -0.055 N 
ATOM      2  H1  THR     1      57.520  40.900  47.012  1.00 99.99     0.276 HD
ATOM      3  H2  THR     1      56.572  39.579  47.096  1.00 99.99     0.276 HD
ATOM      4  H3  THR     1      58.074  39.442  47.530  1.00 99.99     0.276 HD
ENDROOT
BRANCH   1   5
ATOM      5  CA  THR     1      57.810  39.552  45.479  1.00  0.00     0.281 C 
BRANCH   5   6
ATOM      6  CB  THR     1      56.622  39.945  44.581  1.00  0.00     0.148 C 
ATOM      7  CG2 THR     1      55.453  40.533  45.375  1.00  0.00     0.034 C 
BRANCH   6   8
ATOM      8  OG1 THR     1      57.088  40.855  43.577  1.00  0.00    -0.382 OA
ATOM      9  HG1 THR     1      56.426  41.597  43.477  1.00 99.99     0.210 HD
ENDBRANCH   6   8
ENDBRANCH   5   6
BRANCH   5  10
ATOM     10  C   THR     1      59.090  40.194  44.886  1.00  0.00     0.261 C 
ATOM     11  O   THR     1      59.830  39.540  44.148  1.00  0.00    -0.270 OA
ATOM     12  N   VAL     2      59.469  41.383  45.369  1.00  0.00    -0.337 N 
ATOM     13  H   VAL     2      59.068  41.767  46.201  1.00 99.99     0.164 HD
BRANCH  12  14
ATOM     14  CA  VAL     2      60.518  42.218  44.724  1.00  0.00     0.159 C 
BRANCH  14  15
ATOM     15  C   VAL     2      61.638  42.623  45.708  1.00  0.00     0.251 C 
ATOM     16  O   VAL     2      62.669  43.126  45.272  1.00  0.00    -0.271 OA
ATOM     17  N   TYR     3      61.527  42.131  46.940  1.00  0.00    -0.337 N 
ATOM     18  H   TYR     3      60.689  41.676  47.228  1.00 99.99     0.164 HD
BRANCH  17  19
ATOM     19  CA  TYR     3      62.491  42.314  48.047  1.00  0.00     0.164 C 
BRANCH  19  20
ATOM     20  C   TYR     3      62.627  41.150  49.061  1.00  0.00     0.251 C 
ATOM     21  N   THR     4      62.134  41.346  50.282  1.00  0.00    -0.336 N 
ATOM     22  H   THR     4      61.800  42.239  50.582  1.00 99.99     0.164 HD
ATOM     23  O   TYR     3      63.260  40.144  48.756  1.00  0.00    -0.271 OA
BRANCH  21  24
ATOM     24  CA  THR     4      62.103  40.324  51.359  1.00  0.00     0.186 C 
BRANCH  24  25
ATOM     25  C   THR     4      60.725  39.635  51.483  1.00  0.00     0.253 C 
ATOM     26  O   THR     4      60.644  38.431  51.716  1.00  0.00    -0.270 OA
ATOM     27  N   ASN     5      59.666  40.432  51.359  1.00  0.00    -0.337 N 
ATOM     28  H   ASN     5      59.786  41.390  51.088  1.00 99.99     0.164 HD
BRANCH  27  29
ATOM     29  CA  ASN     5      58.259  40.048  51.599  1.00  0.00     0.169 C 
BRANCH  29  30
ATOM     30  CB  ASN     5      57.747  40.781  52.847  1.00  0.00     0.119 C 
BRANCH  30  31
ATOM     31  CG  ASN     5      57.995  40.114  54.206  1.00  0.00     0.230 C 
ATOM     32  OD1 ASN     5      57.506  40.482  55.266  1.00  0.00    -0.273 OA
ATOM     33  ND2 ASN     5      58.636  38.968  54.136  1.00  0.00    -0.369 N 
ATOM     34 2HD2 ASN     5      58.906  38.604  53.250  1.00 99.99     0.159 HD
ATOM     35 1HD2 ASN     5      58.832  38.493  54.986  1.00 99.99     0.159 HD
ENDBRANCH  30  31
ENDBRANCH  29  30
BRANCH  29  36
ATOM     36  C   ASN     5      57.290  40.379  50.444  1.00  0.00     0.251 C 
ATOM     37  O   ASN     5      56.722  39.474  49.838  1.00  0.00    -0.271 OA
ATOM     38  N   ALA     6      56.987  41.671  50.292  1.00  0.00    -0.336 N 
ATOM     39  H   ALA     6      57.419  42.355  50.883  1.00 99.99     0.164 HD
BRANCH  38  40
ATOM     40  CA  ALA     6      56.020  42.242  49.321  1.00  0.00     0.168 C 
ATOM     41  CB  ALA     6      54.937  43.046  50.057  1.00  0.00     0.036 C 
BRANCH  40  42
ATOM     42  C   ALA     6      56.733  43.200  48.349  1.00  0.00     0.206 C 
ATOM     43  O   ALA     6      56.254  44.344  48.196  1.00 99.99    -0.646 OA
ATOM     44  OXT ALA     6      57.685  42.714  47.697  1.00 99.99    -0.646 OA
ENDBRANCH  40  42
ENDBRANCH  38  40
ENDBRANCH  29  36
ENDBRANCH  27  29
ENDBRANCH  24  25
BRANCH  24  45
ATOM     45  CB  THR     4      62.424  40.963  52.722  1.00  0.00     0.140 C 
ATOM     46  CG2 THR     4      62.415  42.494  52.635  1.00  0.00     0.034 C 
BRANCH  45  47
ATOM     47  OG1 THR     4      61.488  40.549  53.726  1.00  0.00    -0.382 OA
ATOM     48  HG1 THR     4      60.779  41.251  53.801  1.00 99.99     0.210 HD
ENDBRANCH  45  47
ENDBRANCH  24  45
ENDBRANCH  21  24
ENDBRANCH  19  20
BRANCH  19  49
ATOM     49  CB  TYR     3      62.060  43.616  48.731  1.00  0.00     0.056 C 
BRANCH  49  50
ATOM     50  CG  TYR     3      63.216  44.544  49.090  1.00  0.00    -0.044 A 
ATOM     51  CD2 TYR     3      64.386  44.509  48.344  1.00  0.00     0.011 A 
ATOM     52  CE2 TYR     3      65.445  45.344  48.675  1.00  0.00     0.037 A 
ATOM     53  CZ  TYR     3      65.323  46.214  49.751  1.00  0.00     0.065 A 
ATOM     54  CE1 TYR     3      64.159  46.238  50.507  1.00  0.00     0.037 A 
ATOM     55  CD1 TYR     3      63.102  45.402  50.175  1.00  0.00     0.011 A 
BRANCH  53  56
ATOM     56  OH  TYR     3      66.361  47.019  50.099  1.00  0.00    -0.361 OA
ATOM     57  HH  TYR     3      66.130  47.507  50.938  1.00 99.99     0.217 HD
ENDBRANCH  53  56
ENDBRANCH  49  50
ENDBRANCH  19  49
ENDBRANCH  17  19
ENDBRANCH  14  15
BRANCH  14  58
ATOM     58  CB  VAL     2      59.908  43.420  43.963  1.00  0.00     0.029 C 
ATOM     59  CG2 VAL     2      58.587  43.867  44.600  1.00  0.00     0.002 C 
ATOM     60  CG1 VAL     2      59.632  43.093  42.489  1.00  0.00     0.002 C 
ENDBRANCH  14  58
ENDBRANCH  12  14
ENDBRANCH   5  10
ENDBRANCH   1   5
TORSDOF 22
ENDMDL
MODEL 6
REMARK VINA RESULT:      -5.3      2.277      7.792
REMARK  22 active torsions:
REMARK  status: ('A' for Active; 'I' for Inactive)
REMARK    1  A    between atoms: N_1  and  CA_2 
REMARK    2  A    between atoms: CA_2  and  CB_5 
REMARK    3  A    between atoms: CA_2  and  C_3 
REMARK       I    between atoms: C_3  and  N_12 
REMARK    4  A    between atoms: CB_5  and  OG1_6 
REMARK    5  A    between atoms: N_12  and  CA_13 
REMARK    6  A    between atoms: CA_13  and  C_14 
REMARK    7  A    between atoms: CA_13  and  CB_16 
REMARK       I    between atoms: C_14  and  N_20 
REMARK    8  A    between atoms: N_20  and  CA_21 
REMARK    9  A    between atoms: CA_21  and  C_22 
REMARK   10  A    between atoms: CA_21  and  CB_24 
REMARK       I    between atoms: C_22  and  N_34 
REMARK   11  A    between atoms: CB_24  and  CG_25 
REMARK   12  A    between atoms: CZ_30  and  OH_31 
REMARK   13  A    between atoms: N_34  and  CA_35 
REMARK   14  A    between atoms: CA_35  and  C_36 
REMARK   15  A    between atoms: CA_35  and  CB_38 
REMARK       I    between atoms: C_36  and  N_43 
REMARK   16  A    between atoms: CB_38  and  OG1_39 
REMARK   17  A    between atoms: N_43  and  CA_44 
REMARK   18  A    between atoms: CA_44  and  CB_47 
REMARK   19  A    between atoms: CA_44  and  C_45 
REMARK       I    between atoms: C_45  and  N_54 
REMARK   20  A    between atoms: CB_47  and  CG_48 
REMARK       I    between atoms: CG_48  and  ND2_50 
REMARK   21  A    between atoms: N_54  and  CA_55 
REMARK   22  A    between atoms: CA_55  and  C_56 
ROOT
ATOM      1  N   THR     1      62.288  41.986  47.075  1.00  0.00    -0.055 N 
ATOM      2  H1  THR     1      62.268  41.010  46.860  1.00 99.99     0.276 HD
ATOM      3  H2  THR     1      63.233  42.253  47.280  1.00 99.99     0.276 HD
ATOM      4  H3  THR     1      61.792  42.191  47.898  1.00 99.99     0.276 HD
ENDROOT
BRANCH   1   5
ATOM      5  CA  THR     1      61.818  42.787  45.915  1.00  0.00     0.281 C 
BRANCH   5   6
ATOM      6  CB  THR     1      62.408  42.195  44.621  1.00  0.00     0.148 C 
ATOM      7  CG2 THR     1      61.803  40.834  44.267  1.00  0.00     0.034 C 
BRANCH   6   8
ATOM      8  OG1 THR     1      62.230  43.142  43.561  1.00  0.00    -0.382 OA
ATOM      9  HG1 THR     1      61.273  43.428  43.536  1.00 99.99     0.210 HD
ENDBRANCH   6   8
ENDBRANCH   5   6
BRANCH   5  10
ATOM     10  C   THR     1      60.282  42.887  45.737  1.00  0.00     0.261 C 
ATOM     11  O   THR     1      59.801  43.644  44.891  1.00  0.00    -0.270 OA
ATOM     12  N   VAL     2      59.510  42.304  46.663  1.00  0.00    -0.337 N 
ATOM     13  H   VAL     2      59.884  41.976  47.530  1.00 99.99     0.164 HD
BRANCH  12  14
ATOM     14  CA  VAL     2      58.047  42.107  46.485  1.00  0.00     0.159 C 
BRANCH  14  15
ATOM     15  C   VAL     2      57.214  42.910  47.508  1.00  0.00     0.251 C 
ATOM     16  O   VAL     2      57.488  44.088  47.715  1.00  0.00    -0.271 OA
ATOM     17  N   TYR     3      56.437  42.187  48.312  1.00  0.00    -0.337 N 
ATOM     18  H   TYR     3      56.294  41.217  48.136  1.00 99.99     0.164 HD
BRANCH  17  19
ATOM     19  CA  TYR     3      55.593  42.703  49.412  1.00  0.00     0.164 C 
BRANCH  19  20
ATOM     20  C   TYR     3      56.210  42.697  50.834  1.00  0.00     0.251 C 
ATOM     21  N   THR     4      56.986  41.664  51.156  1.00  0.00    -0.336 N 
ATOM     22  H   THR     4      57.076  40.864  50.565  1.00 99.99     0.164 HD
ATOM     23  O   TYR     3      55.893  43.566  51.641  1.00  0.00    -0.271 OA
BRANCH  21  24
ATOM     24  CA  THR     4      57.722  41.524  52.438  1.00  0.00     0.186 C 
BRANCH  24  25
ATOM     25  C   THR     4      58.967  42.437  52.511  1.00  0.00     0.253 C 
ATOM     26  O   THR     4      59.098  43.248  53.424  1.00  0.00    -0.270 OA
ATOM     27  N   ASN     5      59.876  42.252  51.555  1.00  0.00    -0.337 N 
ATOM     28  H   ASN     5      59.682  41.635  50.789  1.00 99.99     0.164 HD
BRANCH  27  29
ATOM     29  CA  ASN     5      61.214  42.878  51.499  1.00  0.00     0.169 C 
BRANCH  29  30
ATOM     30  CB  ASN     5      62.276  41.814  51.815  1.00  0.00     0.119 C 
BRANCH  30  31
ATOM     31  CG  ASN     5      62.372  40.613  50.867  1.00  0.00     0.230 C 
ATOM     32  OD1 ASN     5      63.011  40.595  49.823  1.00  0.00    -0.273 OA
ATOM     33  ND2 ASN     5      61.867  39.500  51.352  1.00  0.00    -0.369 N 
ATOM     34 2HD2 ASN     5      61.475  39.491  52.268  1.00 99.99     0.159 HD
ATOM     35 1HD2 ASN     5      61.894  38.688  50.780  1.00 99.99     0.159 HD
ENDBRANCH  30  31
ENDBRANCH  29  30
BRANCH  29  36
ATOM     36  C   ASN     5      61.582  43.501  50.136  1.00  0.00     0.251 C 
ATOM     37  O   ASN     5      60.808  43.404  49.186  1.00  0.00    -0.271 OA
ATOM     38  N   ALA     6      62.665  44.282  50.127  1.00  0.00    -0.336 N 
ATOM     39  H   ALA     6      63.204  44.393  50.964  1.00 99.99     0.164 HD
BRANCH  38  40
ATOM     40  CA  ALA     6      63.179  45.064  48.975  1.00  0.00     0.168 C 
ATOM     41  CB  ALA     6      63.260  46.556  49.336  1.00  0.00     0.036 C 
BRANCH  40  42
ATOM     42  C   ALA     6      64.596  44.598  48.595  1.00  0.00     0.206 C 
ATOM     43  O   ALA     6      65.546  45.385  48.793  1.00 99.99    -0.646 OA
ATOM     44  OXT ALA     6      64.674  43.494  48.008  1.00 99.99    -0.646 OA
ENDBRANCH  40  42
ENDBRANCH  38  40
ENDBRANCH  29  36
ENDBRANCH  27  29
ENDBRANCH  24  25
BRANCH  24  45
ATOM     45  CB  THR     4      58.200  40.073  52.633  1.00  0.00     0.140 C 
ATOM     46  CG2 THR     4      58.221  39.312  51.303  1.00  0.00     0.034 C 
BRANCH  45  47
ATOM     47  OG1 THR     4      59.509  40.030  53.216  1.00  0.00    -0.382 OA
ATOM     48  HG1 THR     4      59.917  39.141  53.004  1.00 99.99     0.210 HD
ENDBRANCH  45  47
ENDBRANCH  24  45
ENDBRANCH  21  24
ENDBRANCH  19  20
BRANCH  19  49
ATOM     49  CB  TYR     3      54.309  41.868  49.346  1.00  0.00     0.056 C 
BRANCH  49  50
ATOM     50  CG  TYR     3      54.489  40.498  48.699  1.00  0.00    -0.044 A 
ATOM     51  CD2 TYR     3      55.101  39.474  49.410  1.00  0.00     0.011 A 
ATOM     52  CE2 TYR     3      55.278  38.230  48.820  1.00  0.00     0.037 A 
ATOM     53  CZ  TYR     3      54.834  38.017  47.520  1.00  0.00     0.065 A 
ATOM     54  CE1 TYR     3      54.236  39.045  46.804  1.00  0.00     0.037 A 
ATOM     55  CD1 TYR     3      54.062  40.289  47.395  1.00  0.00     0.011 A 
BRANCH  53  56
ATOM     56  OH  TYR     3      55.022  36.811  46.924  1.00  0.00    -0.361 OA
ATOM     57  HH  TYR     3      55.787  36.877  46.286  1.00 99.99     0.217 HD
ENDBRANCH  53  56
ENDBRANCH  49  50
ENDBRANCH  19  49
ENDBRANCH  17  19
ENDBRANCH  14  15
BRANCH  14  58
ATOM     58  CB  VAL     2      57.670  40.607  46.433  1.00  0.00     0.029 C 
ATOM     59  CG2 VAL     2      58.792  39.733  47.006  1.00  0.00     0.002 C 
ATOM     60  CG1 VAL     2      57.388  40.129  45.002  1.00  0.00     0.002 C 
ENDBRANCH  14  58
ENDBRANCH  12  14
ENDBRANCH   5  10
ENDBRANCH   1   5
TORSDOF 22
ENDMDL
MODEL 7
REMARK VINA RESULT:      -5.3      2.371      8.595
REMARK  22 active torsions:
REMARK  status: ('A' for Active; 'I' for Inactive)
REMARK    1  A    between atoms: N_1  and  CA_2 
REMARK    2  A    between atoms: CA_2  and  CB_5 
REMARK    3  A    between atoms: CA_2  and  C_3 
REMARK       I    between atoms: C_3  and  N_12 
REMARK    4  A    between atoms: CB_5  and  OG1_6 
REMARK    5  A    between atoms: N_12  and  CA_13 
REMARK    6  A    between atoms: CA_13  and  C_14 
REMARK    7  A    between atoms: CA_13  and  CB_16 
REMARK       I    between atoms: C_14  and  N_20 
REMARK    8  A    between atoms: N_20  and  CA_21 
REMARK    9  A    between atoms: CA_21  and  C_22 
REMARK   10  A    between atoms: CA_21  and  CB_24 
REMARK       I    between atoms: C_22  and  N_34 
REMARK   11  A    between atoms: CB_24  and  CG_25 
REMARK   12  A    between atoms: CZ_30  and  OH_31 
REMARK   13  A    between atoms: N_34  and  CA_35 
REMARK   14  A    between atoms: CA_35  and  C_36 
REMARK   15  A    between atoms: CA_35  and  CB_38 
REMARK       I    between atoms: C_36  and  N_43 
REMARK   16  A    between atoms: CB_38  and  OG1_39 
REMARK   17  A    between atoms: N_43  and  CA_44 
REMARK   18  A    between atoms: CA_44  and  CB_47 
REMARK   19  A    between atoms: CA_44  and  C_45 
REMARK       I    between atoms: C_45  and  N_54 
REMARK   20  A    between atoms: CB_47  and  CG_48 
REMARK       I    between atoms: CG_48  and  ND2_50 
REMARK   21  A    between atoms: N_54  and  CA_55 
REMARK   22  A    between atoms: CA_55  and  C_56 
ROOT
ATOM      1  N   THR     1      57.701  40.841  45.073  1.00  0.00    -0.055 N 
ATOM      2  H1  THR     1      57.836  41.633  44.478  1.00 99.99     0.276 HD
ATOM      3  H2  THR     1      58.282  40.091  44.749  1.00 99.99     0.276 HD
ATOM      4  H3  THR     1      56.786  40.487  45.012  1.00 99.99     0.276 HD
ENDROOT
BRANCH   1   5
ATOM      5  CA  THR     1      58.092  41.164  46.470  1.00  0.00     0.281 C 
BRANCH   5   6
ATOM      6  CB  THR     1      59.266  42.161  46.448  1.00  0.00     0.148 C 
ATOM      7  CG2 THR     1      59.300  43.002  45.170  1.00  0.00     0.034 C 
BRANCH   6   8
ATOM      8  OG1 THR     1      59.189  42.984  47.618  1.00  0.00    -0.382 OA
ATOM      9  HG1 THR     1      58.717  43.834  47.390  1.00 99.99     0.210 HD
ENDBRANCH   6   8
ENDBRANCH   5   6
BRANCH   5  10
ATOM     10  C   THR     1      56.977  41.758  47.367  1.00  0.00     0.261 C 
ATOM     11  O   THR     1      56.523  42.880  47.136  1.00  0.00    -0.270 OA
ATOM     12  N   VAL     2      56.688  41.115  48.505  1.00  0.00    -0.337 N 
ATOM     13  H   VAL     2      57.276  40.393  48.867  1.00 99.99     0.164 HD
BRANCH  12  14
ATOM     14  CA  VAL     2      55.485  41.427  49.324  1.00  0.00     0.159 C 
BRANCH  14  15
ATOM     15  C   VAL     2      55.848  41.999  50.712  1.00  0.00     0.251 C 
ATOM     16  O   VAL     2      55.526  43.149  50.992  1.00  0.00    -0.271 OA
ATOM     17  N   TYR     3      56.743  41.299  51.407  1.00  0.00    -0.337 N 
ATOM     18  H   TYR     3      57.017  40.391  51.104  1.00 99.99     0.164 HD
BRANCH  17  19
ATOM     19  CA  TYR     3      57.304  41.660  52.727  1.00  0.00     0.164 C 
BRANCH  19  20
ATOM     20  C   TYR     3      58.683  42.366  52.735  1.00  0.00     0.251 C 
ATOM     21  N   THR     4      59.675  41.772  52.076  1.00  0.00    -0.336 N 
ATOM     22  H   THR     4      59.582  40.853  51.692  1.00 99.99     0.164 HD
ATOM     23  O   TYR     3      58.850  43.373  53.418  1.00  0.00    -0.271 OA
BRANCH  21  24
ATOM     24  CA  THR     4      61.040  42.334  51.909  1.00  0.00     0.186 C 
BRANCH  24  25
ATOM     25  C   THR     4      61.348  42.719  50.445  1.00  0.00     0.253 C 
ATOM     26  O   THR     4      61.088  41.948  49.525  1.00  0.00    -0.270 OA
ATOM     27  N   ASN     5      61.869  43.931  50.262  1.00  0.00    -0.337 N 
ATOM     28  H   ASN     5      62.138  44.486  51.053  1.00 99.99     0.164 HD
BRANCH  27  29
ATOM     29  CA  ASN     5      62.096  44.590  48.959  1.00  0.00     0.169 C 
BRANCH  29  30
ATOM     30  CB  ASN     5      62.681  45.988  49.201  1.00  0.00     0.119 C 
BRANCH  30  31
ATOM     31  CG  ASN     5      63.194  46.302  50.612  1.00  0.00     0.230 C 
ATOM     32  OD1 ASN     5      62.506  46.293  51.625  1.00  0.00    -0.273 OA
ATOM     33  ND2 ASN     5      64.502  46.399  50.702  1.00  0.00    -0.369 N 
ATOM     34 2HD2 ASN     5      65.066  46.262  49.893  1.00 99.99     0.159 HD
ATOM     35 1HD2 ASN     5      64.893  46.608  51.591  1.00 99.99     0.159 HD
ENDBRANCH  30  31
ENDBRANCH  29  30
BRANCH  29  36
ATOM     36  C   ASN     5      63.066  43.845  48.016  1.00  0.00     0.251 C 
ATOM     37  O   ASN     5      62.655  43.371  46.960  1.00  0.00    -0.271 OA
ATOM     38  N   ALA     6      64.360  43.922  48.335  1.00  0.00    -0.336 N 
ATOM     39  H   ALA     6      64.638  44.405  49.168  1.00 99.99     0.164 HD
BRANCH  38  40
ATOM     40  CA  ALA     6      65.496  43.373  47.553  1.00  0.00     0.168 C 
ATOM     41  CB  ALA     6      65.990  44.409  46.531  1.00  0.00     0.036 C 
BRANCH  40  42
ATOM     42  C   ALA     6      66.676  43.033  48.480  1.00  0.00     0.206 C 
ATOM     43  O   ALA     6      67.053  41.843  48.538  1.00 99.99    -0.646 OA
ATOM     44  OXT ALA     6      67.101  43.968  49.197  1.00 99.99    -0.646 OA
ENDBRANCH  40  42
ENDBRANCH  38  40
ENDBRANCH  29  36
ENDBRANCH  27  29
ENDBRANCH  24  25
BRANCH  24  45
ATOM     45  CB  THR     4      62.104  41.314  52.354  1.00  0.00     0.140 C 
ATOM     46  CG2 THR     4      62.044  41.071  53.866  1.00  0.00     0.034 C 
BRANCH  45  47
ATOM     47  OG1 THR     4      61.942  40.062  51.674  1.00  0.00    -0.382 OA
ATOM     48  HG1 THR     4      60.963  39.860  51.618  1.00 99.99     0.210 HD
ENDBRANCH  45  47
ENDBRANCH  24  45
ENDBRANCH  21  24
ENDBRANCH  19  20
BRANCH  19  49
ATOM     49  CB  TYR     3      57.334  40.344  53.512  1.00  0.00     0.056 C 
BRANCH  49  50
ATOM     50  CG  TYR     3      56.078  39.493  53.353  1.00  0.00    -0.044 A 
ATOM     51  CD2 TYR     3      54.864  39.956  53.842  1.00  0.00     0.011 A 
ATOM     52  CE2 TYR     3      53.722  39.179  53.709  1.00  0.00     0.037 A 
ATOM     53  CZ  TYR     3      53.801  37.942  53.081  1.00  0.00     0.065 A 
ATOM     54  CE1 TYR     3      55.018  37.473  52.604  1.00  0.00     0.037 A 
ATOM     55  CD1 TYR     3      56.159  38.250  52.740  1.00  0.00     0.011 A 
BRANCH  53  56
ATOM     56  OH  TYR     3      52.694  37.163  52.965  1.00  0.00    -0.361 OA
ATOM     57  HH  TYR     3      52.464  36.787  53.861  1.00 99.99     0.217 HD
ENDBRANCH  53  56
ENDBRANCH  49  50
ENDBRANCH  19  49
ENDBRANCH  17  19
ENDBRANCH  14  15
BRANCH  14  58
ATOM     58  CB  VAL     2      54.509  40.228  49.392  1.00  0.00     0.029 C 
ATOM     59  CG2 VAL     2      54.005  39.842  47.996  1.00  0.00     0.002 C 
ATOM     60  CG1 VAL     2      53.284  40.525  50.267  1.00  0.00     0.002 C 
ENDBRANCH  14  58
ENDBRANCH  12  14
ENDBRANCH   5  10
ENDBRANCH   1   5
TORSDOF 22
ENDMDL
MODEL 8
REMARK VINA RESULT:      -5.3      1.641      2.105
REMARK  22 active torsions:
REMARK  status: ('A' for Active; 'I' for Inactive)
REMARK    1  A    between atoms: N_1  and  CA_2 
REMARK    2  A    between atoms: CA_2  and  CB_5 
REMARK    3  A    between atoms: CA_2  and  C_3 
REMARK       I    between atoms: C_3  and  N_12 
REMARK    4  A    between atoms: CB_5  and  OG1_6 
REMARK    5  A    between atoms: N_12  and  CA_13 
REMARK    6  A    between atoms: CA_13  and  C_14 
REMARK    7  A    between atoms: CA_13  and  CB_16 
REMARK       I    between atoms: C_14  and  N_20 
REMARK    8  A    between atoms: N_20  and  CA_21 
REMARK    9  A    between atoms: CA_21  and  C_22 
REMARK   10  A    between atoms: CA_21  and  CB_24 
REMARK       I    between atoms: C_22  and  N_34 
REMARK   11  A    between atoms: CB_24  and  CG_25 
REMARK   12  A    between atoms: CZ_30  and  OH_31 
REMARK   13  A    between atoms: N_34  and  CA_35 
REMARK   14  A    between atoms: CA_35  and  C_36 
REMARK   15  A    between atoms: CA_35  and  CB_38 
REMARK       I    between atoms: C_36  and  N_43 
REMARK   16  A    between atoms: CB_38  and  OG1_39 
REMARK   17  A    between atoms: N_43  and  CA_44 
REMARK   18  A    between atoms: CA_44  and  CB_47 
REMARK   19  A    between atoms: CA_44  and  C_45 
REMARK       I    between atoms: C_45  and  N_54 
REMARK   20  A    between atoms: CB_47  and  CG_48 
REMARK       I    between atoms: CG_48  and  ND2_50 
REMARK   21  A    between atoms: N_54  and  CA_55 
REMARK   22  A    between atoms: CA_55  and  C_56 
ROOT
ATOM      1  N   THR     1      57.861  40.357  44.701  1.00  0.00    -0.055 N 
ATOM      2  H1  THR     1      57.757  39.437  45.080  1.00 99.99     0.276 HD
ATOM      3  H2  THR     1      58.159  40.976  45.431  1.00 99.99     0.276 HD
ATOM      4  H3  THR     1      57.003  40.729  44.399  1.00 99.99     0.276 HD
ENDROOT
BRANCH   1   5
ATOM      5  CA  THR     1      58.892  40.367  43.631  1.00  0.00     0.281 C 
BRANCH   5   6
ATOM      6  CB  THR     1      58.756  41.664  42.811  1.00  0.00     0.148 C 
ATOM      7  CG2 THR     1      57.994  41.454  41.501  1.00  0.00     0.034 C 
BRANCH   6   8
ATOM      8  OG1 THR     1      58.132  42.660  43.630  1.00  0.00    -0.382 OA
ATOM      9  HG1 THR     1      57.144  42.506  43.636  1.00 99.99     0.210 HD
ENDBRANCH   6   8
ENDBRANCH   5   6
BRANCH   5  10
ATOM     10  C   THR     1      60.364  40.255  44.106  1.00  0.00     0.261 C 
ATOM     11  O   THR     1      60.886  39.149  44.260  1.00  0.00    -0.270 OA
ATOM     12  N   VAL     2      60.962  41.370  44.543  1.00  0.00    -0.337 N 
ATOM     13  H   VAL     2      60.445  42.203  44.738  1.00 99.99     0.164 HD
BRANCH  12  14
ATOM     14  CA  VAL     2      62.427  41.457  44.786  1.00  0.00     0.159 C 
BRANCH  14  15
ATOM     15  C   VAL     2      62.767  41.658  46.279  1.00  0.00     0.251 C 
ATOM     16  O   VAL     2      63.744  41.089  46.756  1.00  0.00    -0.271 OA
ATOM     17  N   TYR     3      61.807  42.209  47.019  1.00  0.00    -0.337 N 
ATOM     18  H   TYR     3      61.002  42.605  46.586  1.00 99.99     0.164 HD
BRANCH  17  19
ATOM     19  CA  TYR     3      61.855  42.451  48.477  1.00  0.00     0.164 C 
BRANCH  19  20
ATOM     20  C   TYR     3      60.840  41.673  49.353  1.00  0.00     0.251 C 
ATOM     21  N   THR     4      60.314  42.318  50.392  1.00  0.00    -0.336 N 
ATOM     22  H   THR     4      60.640  43.218  50.679  1.00 99.99     0.164 HD
ATOM     23  O   TYR     3      60.632  40.483  49.136  1.00  0.00    -0.271 OA
BRANCH  21  24
ATOM     24  CA  THR     4      59.273  41.764  51.295  1.00  0.00     0.186 C 
BRANCH  24  25
ATOM     25  C   THR     4      57.850  42.235  50.919  1.00  0.00     0.253 C 
ATOM     26  O   THR     4      57.085  42.670  51.776  1.00  0.00    -0.270 OA
ATOM     27  N   ASN     5      57.541  42.169  49.625  1.00  0.00    -0.337 N 
ATOM     28  H   ASN     5      58.171  41.730  48.980  1.00 99.99     0.164 HD
BRANCH  27  29
ATOM     29  CA  ASN     5      56.317  42.708  48.997  1.00  0.00     0.169 C 
BRANCH  29  30
ATOM     30  CB  ASN     5      56.621  43.064  47.534  1.00  0.00     0.119 C 
BRANCH  30  31
ATOM     31  CG  ASN     5      58.094  43.232  47.142  1.00  0.00     0.230 C 
ATOM     32  OD1 ASN     5      58.790  42.356  46.647  1.00  0.00    -0.273 OA
ATOM     33  ND2 ASN     5      58.529  44.472  47.195  1.00  0.00    -0.369 N 
ATOM     34 2HD2 ASN     5      57.909  45.204  47.464  1.00 99.99     0.159 HD
ATOM     35 1HD2 ASN     5      59.479  44.642  46.959  1.00 99.99     0.159 HD
ENDBRANCH  30  31
ENDBRANCH  29  30
BRANCH  29  36
ATOM     36  C   ASN     5      55.112  41.743  48.992  1.00  0.00     0.251 C 
ATOM     37  O   ASN     5      54.006  42.139  49.352  1.00  0.00    -0.271 OA
ATOM     38  N   ALA     6      55.318  40.559  48.411  1.00  0.00    -0.336 N 
ATOM     39  H   ALA     6      56.226  40.333  48.053  1.00 99.99     0.164 HD
BRANCH  38  40
ATOM     40  CA  ALA     6      54.307  39.494  48.197  1.00  0.00     0.168 C 
ATOM     41  CB  ALA     6      54.814  38.476  47.164  1.00  0.00     0.036 C 
BRANCH  40  42
ATOM     42  C   ALA     6      54.038  38.733  49.509  1.00  0.00     0.206 C 
ATOM     43  O   ALA     6      52.882  38.764  49.979  1.00 99.99    -0.646 OA
ATOM     44  OXT ALA     6      55.040  38.228  50.067  1.00 99.99    -0.646 OA
ENDBRANCH  40  42
ENDBRANCH  38  40
ENDBRANCH  29  36
ENDBRANCH  27  29
ENDBRANCH  24  25
BRANCH  24  45
ATOM     45  CB  THR     4      59.532  42.195  52.750  1.00  0.00     0.140 C 
ATOM     46  CG2 THR     4      60.089  41.033  53.582  1.00  0.00     0.034 C 
BRANCH  45  47
ATOM     47  OG1 THR     4      60.451  43.294  52.813  1.00  0.00    -0.382 OA
ATOM     48  HG1 THR     4      59.962  44.090  53.174  1.00 99.99     0.210 HD
ENDBRANCH  45  47
ENDBRANCH  24  45
ENDBRANCH  21  24
ENDBRANCH  19  20
BRANCH  19  49
ATOM     49  CB  TYR     3      61.689  43.968  48.628  1.00  0.00     0.056 C 
BRANCH  49  50
ATOM     50  CG  TYR     3      62.933  44.682  49.148  1.00  0.00    -0.044 A 
ATOM     51  CD2 TYR     3      62.815  45.617  50.168  1.00  0.00     0.011 A 
ATOM     52  CE2 TYR     3      63.943  46.278  50.636  1.00  0.00     0.037 A 
ATOM     53  CZ  TYR     3      65.185  45.994  50.081  1.00  0.00     0.065 A 
ATOM     54  CE1 TYR     3      65.300  45.070  49.051  1.00  0.00     0.037 A 
ATOM     55  CD1 TYR     3      64.171  44.412  48.584  1.00  0.00     0.011 A 
BRANCH  53  56
ATOM     56  OH  TYR     3      66.293  46.650  50.515  1.00  0.00    -0.361 OA
ATOM     57  HH  TYR     3      67.105  46.186  50.167  1.00 99.99     0.217 HD
ENDBRANCH  53  56
ENDBRANCH  49  50
ENDBRANCH  19  49
ENDBRANCH  17  19
ENDBRANCH  14  15
BRANCH  14  58
ATOM     58  CB  VAL     2      63.102  42.495  43.859  1.00  0.00     0.029 C 
ATOM     59  CG2 VAL     2      62.308  42.679  42.559  1.00  0.00     0.002 C 
ATOM     60  CG1 VAL     2      64.534  42.091  43.480  1.00  0.00     0.002 C 
ENDBRANCH  14  58
ENDBRANCH  12  14
ENDBRANCH   5  10
ENDBRANCH   1   5
TORSDOF 22
ENDMDL
MODEL 9
REMARK VINA RESULT:      -5.2      2.478      6.300
REMARK  22 active torsions:
REMARK  status: ('A' for Active; 'I' for Inactive)
REMARK    1  A    between atoms: N_1  and  CA_2 
REMARK    2  A    between atoms: CA_2  and  CB_5 
REMARK    3  A    between atoms: CA_2  and  C_3 
REMARK       I    between atoms: C_3  and  N_12 
REMARK    4  A    between atoms: CB_5  and  OG1_6 
REMARK    5  A    between atoms: N_12  and  CA_13 
REMARK    6  A    between atoms: CA_13  and  C_14 
REMARK    7  A    between atoms: CA_13  and  CB_16 
REMARK       I    between atoms: C_14  and  N_20 
REMARK    8  A    between atoms: N_20  and  CA_21 
REMARK    9  A    between atoms: CA_21  and  C_22 
REMARK   10  A    between atoms: CA_21  and  CB_24 
REMARK       I    between atoms: C_22  and  N_34 
REMARK   11  A    between atoms: CB_24  and  CG_25 
REMARK   12  A    between atoms: CZ_30  and  OH_31 
REMARK   13  A    between atoms: N_34  and  CA_35 
REMARK   14  A    between atoms: CA_35  and  C_36 
REMARK   15  A    between atoms: CA_35  and  CB_38 
REMARK       I    between atoms: C_36  and  N_43 
REMARK   16  A    between atoms: CB_38  and  OG1_39 
REMARK   17  A    between atoms: N_43  and  CA_44 
REMARK   18  A    between atoms: CA_44  and  CB_47 
REMARK   19  A    between atoms: CA_44  and  C_45 
REMARK       I    between atoms: C_45  and  N_54 
REMARK   20  A    between atoms: CB_47  and  CG_48 
REMARK       I    between atoms: CG_48  and  ND2_50 
REMARK   21  A    between atoms: N_54  and  CA_55 
REMARK   22  A    between atoms: CA_55  and  C_56 
ROOT
ATOM      1  N   THR     1      65.542  37.791  51.480  1.00  0.00    -0.055 N 
ATOM      2  H1  THR     1      66.045  37.553  52.310  1.00 99.99     0.276 HD
ATOM      3  H2  THR     1      64.630  37.378  51.523  1.00 99.99     0.276 HD
ATOM      4  H3  THR     1      65.951  37.398  50.677  1.00 99.99     0.276 HD
ENDROOT
BRANCH   1   5
ATOM      5  CA  THR     1      65.382  39.265  51.370  1.00  0.00     0.281 C 
BRANCH   5   6
ATOM      6  CB  THR     1      66.063  39.752  50.077  1.00  0.00     0.148 C 
ATOM      7  CG2 THR     1      66.108  38.673  48.993  1.00  0.00     0.034 C 
BRANCH   6   8
ATOM      8  OG1 THR     1      65.388  40.930  49.621  1.00  0.00    -0.382 OA
ATOM      9  HG1 THR     1      64.677  41.175  50.279  1.00 99.99     0.210 HD
ENDBRANCH   6   8
ENDBRANCH   5   6
BRANCH   5  10
ATOM     10  C   THR     1      63.925  39.791  51.371  1.00  0.00     0.261 C 
ATOM     11  O   THR     1      63.114  39.381  50.537  1.00  0.00    -0.270 OA
ATOM     12  N   VAL     2      63.645  40.844  52.148  1.00  0.00    -0.337 N 
ATOM     13  H   VAL     2      64.365  41.393  52.571  1.00 99.99     0.164 HD
BRANCH  12  14
ATOM     14  CA  VAL     2      62.254  41.288  52.436  1.00  0.00     0.159 C 
BRANCH  14  15
ATOM     15  C   VAL     2      61.856  42.542  51.627  1.00  0.00     0.251 C 
ATOM     16  O   VAL     2      61.466  43.542  52.222  1.00  0.00    -0.271 OA
ATOM     17  N   TYR     3      61.688  42.355  50.320  1.00  0.00    -0.337 N 
ATOM     18  H   TYR     3      61.966  41.499  49.894  1.00 99.99     0.164 HD
BRANCH  17  19
ATOM     19  CA  TYR     3      61.249  43.371  49.338  1.00  0.00     0.164 C 
BRANCH  19  20
ATOM     20  C   TYR     3      59.937  43.082  48.566  1.00  0.00     0.251 C 
ATOM     21  N   THR     4      59.490  44.033  47.749  1.00  0.00    -0.336 N 
ATOM     22  H   THR     4      59.903  44.943  47.718  1.00 99.99     0.164 HD
ATOM     23  O   TYR     3      59.304  42.056  48.798  1.00  0.00    -0.271 OA
BRANCH  21  24
ATOM     24  CA  THR     4      58.298  43.908  46.872  1.00  0.00     0.186 C 
BRANCH  24  25
ATOM     25  C   THR     4      57.070  43.338  47.618  1.00  0.00     0.253 C 
ATOM     26  O   THR     4      56.334  44.075  48.269  1.00  0.00    -0.270 OA
ATOM     27  N   ASN     5      56.860  42.031  47.473  1.00  0.00    -0.337 N 
ATOM     28  H   ASN     5      57.537  41.463  46.999  1.00 99.99     0.164 HD
BRANCH  27  29
ATOM     29  CA  ASN     5      55.674  41.286  47.945  1.00  0.00     0.169 C 
BRANCH  29  30
ATOM     30  CB  ASN     5      55.559  39.977  47.151  1.00  0.00     0.119 C 
BRANCH  30  31
ATOM     31  CG  ASN     5      56.029  39.994  45.692  1.00  0.00     0.230 C 
ATOM     32  OD1 ASN     5      57.159  39.710  45.318  1.00  0.00    -0.273 OA
ATOM     33  ND2 ASN     5      55.062  40.152  44.815  1.00  0.00    -0.369 N 
ATOM     34 2HD2 ASN     5      54.120  40.239  45.126  1.00 99.99     0.159 HD
ATOM     35 1HD2 ASN     5      55.307  40.179  43.852  1.00 99.99     0.159 HD
ENDBRANCH  30  31
ENDBRANCH  29  30
BRANCH  29  36
ATOM     36  C   ASN     5      55.696  40.914  49.443  1.00  0.00     0.251 C 
ATOM     37  O   ASN     5      54.984  40.004  49.861  1.00  0.00    -0.271 OA
ATOM     38  N   ALA     6      56.646  41.502  50.174  1.00  0.00    -0.336 N 
ATOM     39  H   ALA     6      57.256  42.172  49.748  1.00 99.99     0.164 HD
BRANCH  38  40
ATOM     40  CA  ALA     6      56.936  41.252  51.608  1.00  0.00     0.168 C 
ATOM     41  CB  ALA     6      58.350  41.741  51.959  1.00  0.00     0.036 C 
BRANCH  40  42
ATOM     42  C   ALA     6      55.943  42.017  52.502  1.00  0.00     0.206 C 
ATOM     43  O   ALA     6      55.400  41.397  53.440  1.00 99.99    -0.646 OA
ATOM     44  OXT ALA     6      55.670  43.187  52.146  1.00 99.99    -0.646 OA
ENDBRANCH  40  42
ENDBRANCH  38  40
ENDBRANCH  29  36
ENDBRANCH  27  29
ENDBRANCH  24  25
BRANCH  24  45
ATOM     45  CB  THR     4      58.594  42.971  45.686  1.00  0.00     0.140 C 
ATOM     46  CG2 THR     4      59.416  43.685  44.607  1.00  0.00     0.034 C 
BRANCH  45  47
ATOM     47  OG1 THR     4      59.301  41.799  46.111  1.00  0.00    -0.382 OA
ATOM     48  HG1 THR     4      59.717  41.374  45.306  1.00 99.99     0.210 HD
ENDBRANCH  45  47
ENDBRANCH  24  45
ENDBRANCH  21  24
ENDBRANCH  19  20
BRANCH  19  49
ATOM     49  CB  TYR     3      62.442  43.539  48.389  1.00  0.00     0.056 C 
BRANCH  49  50
ATOM     50  CG  TYR     3      63.557  44.423  48.941  1.00  0.00    -0.044 A 
ATOM     51  CD2 TYR     3      64.876  44.170  48.586  1.00  0.00     0.011 A 
ATOM     52  CE2 TYR     3      65.894  44.964  49.095  1.00  0.00     0.037 A 
ATOM     53  CZ  TYR     3      65.584  46.012  49.954  1.00  0.00     0.065 A 
ATOM     54  CE1 TYR     3      64.267  46.255  50.320  1.00  0.00     0.037 A 
ATOM     55  CD1 TYR     3      63.251  45.459  49.811  1.00  0.00     0.011 A 
BRANCH  53  56
ATOM     56  OH  TYR     3      66.575  46.781  50.477  1.00  0.00    -0.361 OA
ATOM     57  HH  TYR     3      67.347  46.793  49.845  1.00 99.99     0.217 HD
ENDBRANCH  53  56
ENDBRANCH  49  50
ENDBRANCH  19  49
ENDBRANCH  17  19
ENDBRANCH  14  15
BRANCH  14  58
ATOM     58  CB  VAL     2      61.999  41.432  53.955  1.00  0.00     0.029 C 
ATOM     59  CG2 VAL     2      63.277  41.169  54.760  1.00  0.00     0.002 C 
ATOM     60  CG1 VAL     2      60.921  40.462  54.457  1.00  0.00     0.002 C 
ENDBRANCH  14  58
ENDBRANCH  12  14
ENDBRANCH   5  10
ENDBRANCH   1   5
TORSDOF 22
ENDMDL
