MODEL 1
REMARK VINA RESULT:      -5.4      0.000      0.000
REMARK  28 active torsions:
REMARK  status: ('A' for Active; 'I' for Inactive)
REMARK    1  A    between atoms: N_1  and  CA_2 
REMARK    2  A    between atoms: CA_2  and  CB_5 
REMARK    3  A    between atoms: CA_2  and  C_3 
REMARK       I    between atoms: C_3  and  N_12 
REMARK    4  A    between atoms: CB_5  and  CG_6 
REMARK    5  A    between atoms: N_12  and  CA_13 
REMARK    6  A    between atoms: CA_13  and  CB_16 
REMARK    7  A    between atoms: CA_13  and  C_14 
REMARK       I    between atoms: C_14  and  N_21 
REMARK    8  A    between atoms: CB_16  and  CG_17 
REMARK    9  A    between atoms: N_21  and  CA_22 
REMARK   10  A    between atoms: CA_22  and  CB_25 
REMARK   11  A    between atoms: CA_22  and  C_23 
REMARK       I    between atoms: C_23  and  N_30 
REMARK   12  A    between atoms: CB_25  and  CG_26 
REMARK   13  A    between atoms: N_30  and  CA_31 
REMARK   14  A    between atoms: CA_31  and  CB_34 
REMARK   15  A    between atoms: CA_31  and  C_32 
REMARK       I    between atoms: C_32  and  N_38 
REMARK   16  A    between atoms: N_38  and  CA_39 
REMARK   17  A    between atoms: CA_39  and  CB_42 
REMARK   18  A    between atoms: CA_39  and  C_40 
REMARK       I    between atoms: C_40  and  N_47 
REMARK   19  A    between atoms: CB_42  and  CG_43 
REMARK   20  A    between atoms: N_47  and  CA_48 
REMARK   21  A    between atoms: CA_48  and  C_49 
REMARK   22  A    between atoms: CA_48  and  CB_51 
REMARK       I    between atoms: C_49  and  N_56 
REMARK   23  A    between atoms: CB_51  and  CG_52 
REMARK   24  A    between atoms: N_56  and  CA_57 
REMARK   25  A    between atoms: CA_57  and  C_58 
REMARK   26  A    between atoms: CA_57  and  CB_60 
REMARK   27  A    between atoms: CB_60  and  CG_61 
REMARK   28  A    between atoms: CG_61  and  CD_62 
ROOT
ATOM      1  N   LEU     1      58.785  44.028  46.924  1.00  0.00    -0.058 N 
ATOM      2  H1  LEU     1      59.495  43.679  46.311  1.00 99.99     0.276 HD
ATOM      3  H2  LEU     1      58.476  44.906  46.596  1.00 99.99     0.276 HD
ATOM      4  H3  LEU     1      59.203  44.227  47.810  1.00 99.99     0.276 HD
ENDROOT
BRANCH   1   5
ATOM      5  CA  LEU     1      57.676  43.046  47.049  1.00  0.00     0.255 C 
BRANCH   5   6
ATOM      6  CB  LEU     1      58.176  41.619  47.331  1.00  0.00     0.040 C 
BRANCH   6   7
ATOM      7  CG  LEU     1      57.917  40.623  46.192  1.00  0.00     0.002 C 
ATOM      8  CD1 LEU     1      58.319  39.218  46.647  1.00  0.00     0.000 C 
ATOM      9  CD2 LEU     1      56.443  40.612  45.765  1.00  0.00     0.000 C 
ENDBRANCH   6   7
ENDBRANCH   5   6
BRANCH   5  10
ATOM     10  C   LEU     1      56.535  43.375  48.037  1.00  0.00     0.259 C 
ATOM     11  O   LEU     1      55.984  44.473  47.975  1.00  0.00    -0.271 OA
ATOM     12  N   LEU     2      56.280  42.498  49.017  1.00  0.00    -0.338 N 
ATOM     13  H   LEU     2      56.716  41.600  49.048  1.00 99.99     0.164 HD
BRANCH  12  14
ATOM     14  CA  LEU     2      55.248  42.737  50.058  1.00  0.00     0.159 C 
BRANCH  14  15
ATOM     15  CB  LEU     2      54.256  41.566  50.107  1.00  0.00     0.032 C 
BRANCH  15  16
ATOM     16  CG  LEU     2      54.624  40.430  49.147  1.00  0.00     0.002 C 
ATOM     17  CD2 LEU     2      53.512  40.190  48.120  1.00  0.00     0.000 C 
ATOM     18  CD1 LEU     2      54.874  39.146  49.939  1.00  0.00     0.000 C 
ENDBRANCH  15  16
ENDBRANCH  14  15
BRANCH  14  19
ATOM     19  C   LEU     2      55.882  42.976  51.438  1.00  0.00     0.251 C 
ATOM     20  N   ASP     3      56.826  42.089  51.736  1.00  0.00    -0.337 N 
ATOM     21  H   ASP     3      56.847  41.231  51.226  1.00 99.99     0.164 HD
ATOM     22  O   LEU     2      55.683  44.007  52.068  1.00  0.00    -0.271 OA
BRANCH  20  23
ATOM     23  CA  ASP     3      57.878  42.188  52.769  1.00  0.00     0.170 C 
BRANCH  23  24
ATOM     24  CB  ASP     3      57.603  41.068  53.795  1.00  0.00     0.129 C 
BRANCH  24  25
ATOM     25  CG  ASP     3      56.916  39.828  53.197  1.00  0.00     0.188 C 
ATOM     26  OD2 ASP     3      57.579  39.155  52.384  1.00  0.00    -0.647 OA
ATOM     27  OD1 ASP     3      55.677  39.717  53.360  1.00  0.00    -0.647 OA
ENDBRANCH  24  25
ENDBRANCH  23  24
BRANCH  23  28
ATOM     28  C   ASP     3      59.323  42.224  52.212  1.00  0.00     0.251 C 
ATOM     29  O   ASP     3      60.084  43.109  52.596  1.00  0.00    -0.271 OA
ATOM     30  N   VAL     4      59.574  41.439  51.161  1.00  0.00    -0.338 N 
ATOM     31  H   VAL     4      58.903  40.762  50.860  1.00 99.99     0.164 HD
BRANCH  30  32
ATOM     32  CA  VAL     4      60.852  41.319  50.410  1.00  0.00     0.159 C 
BRANCH  32  33
ATOM     33  CB  VAL     4      60.753  40.082  49.473  1.00  0.00     0.029 C 
ATOM     34  CG1 VAL     4      62.019  39.820  48.650  1.00  0.00     0.002 C 
ATOM     35  CG2 VAL     4      60.461  38.786  50.236  1.00  0.00     0.002 C 
ENDBRANCH  32  33
BRANCH  32  36
ATOM     36  C   VAL     4      61.287  42.604  49.649  1.00  0.00     0.251 C 
ATOM     37  O   VAL     4      60.453  43.305  49.083  1.00  0.00    -0.271 OA
ATOM     38  N   LEU     5      62.578  42.932  49.677  1.00  0.00    -0.338 N 
ATOM     39  H   LEU     5      63.232  42.456  50.266  1.00 99.99     0.164 HD
BRANCH  38  40
ATOM     40  CA  LEU     5      63.166  44.068  48.928  1.00  0.00     0.159 C 
BRANCH  40  41
ATOM     41  CB  LEU     5      64.348  44.644  49.717  1.00  0.00     0.032 C 
BRANCH  41  42
ATOM     42  CG  LEU     5      64.084  46.016  50.348  1.00  0.00     0.002 C 
ATOM     43  CD2 LEU     5      62.868  45.977  51.278  1.00  0.00     0.000 C 
ATOM     44  CD1 LEU     5      63.844  47.037  49.236  1.00  0.00     0.000 C 
ENDBRANCH  41  42
ENDBRANCH  40  41
BRANCH  40  45
ATOM     45  C   LEU     5      63.646  43.730  47.500  1.00  0.00     0.251 C 
ATOM     46  O   LEU     5      64.741  44.124  47.104  1.00  0.00    -0.271 OA
ATOM     47  N   LEU     6      62.854  42.938  46.780  1.00  0.00    -0.338 N 
ATOM     48  H   LEU     6      62.001  42.589  47.171  1.00 99.99     0.164 HD
BRANCH  47  49
ATOM     49  CA  LEU     6      63.167  42.450  45.418  1.00  0.00     0.159 C 
BRANCH  49  50
ATOM     50  C   LEU     6      61.928  42.232  44.533  1.00  0.00     0.251 C 
ATOM     51  N   GLU     7      61.736  43.140  43.576  1.00  0.00    -0.336 N 
ATOM     52  H   GLU     7      62.393  43.886  43.437  1.00 99.99     0.164 HD
ATOM     53  O   LEU     6      61.135  41.325  44.775  1.00  0.00    -0.271 OA
BRANCH  51  54
ATOM     54  CA  GLU     7      60.608  43.138  42.616  1.00  0.00     0.169 C 
BRANCH  54  55
ATOM     55  C   GLU     7      59.275  43.335  43.367  1.00  0.00     0.206 C 
ATOM     56  O   GLU     7      59.147  44.359  44.071  1.00 99.99    -0.646 OA
ATOM     57  OXT GLU     7      58.440  42.407  43.267  1.00 99.99    -0.646 OA
ENDBRANCH  54  55
BRANCH  54  58
ATOM     58  CB  GLU     7      60.575  41.799  41.857  1.00  0.00     0.044 C 
BRANCH  58  59
ATOM     59  CG  GLU     7      61.030  41.903  40.392  1.00  0.00     0.100 C 
BRANCH  59  60
ATOM     60  CD  GLU     7      59.983  42.473  39.420  1.00  0.00     0.185 C 
ATOM     61  OE1 GLU     7      59.021  41.744  39.084  1.00  0.00    -0.647 OA
ATOM     62  OE2 GLU     7      60.214  43.611  38.959  1.00  0.00    -0.647 OA
ENDBRANCH  59  60
ENDBRANCH  58  59
ENDBRANCH  54  58
ENDBRANCH  51  54
ENDBRANCH  49  50
BRANCH  49  63
ATOM     63  CB  LEU     6      63.938  41.123  45.511  1.00  0.00     0.032 C 
BRANCH  63  64
ATOM     64  CG  LEU     6      65.310  41.131  44.826  1.00  0.00     0.002 C 
ATOM     65  CD2 LEU     6      66.437  41.380  45.833  1.00  0.00     0.000 C 
ATOM     66  CD1 LEU     6      65.334  42.220  43.752  1.00  0.00     0.000 C 
ENDBRANCH  63  64
ENDBRANCH  49  63
ENDBRANCH  47  49
ENDBRANCH  40  45
ENDBRANCH  38  40
ENDBRANCH  32  36
ENDBRANCH  30  32
ENDBRANCH  23  28
ENDBRANCH  20  23
ENDBRANCH  14  19
ENDBRANCH  12  14
ENDBRANCH   5  10
ENDBRANCH   1   5
TORSDOF 28
ENDMDL
MODEL 2
REMARK VINA RESULT:      -5.4      2.507      6.863
REMARK  28 active torsions:
REMARK  status: ('A' for Active; 'I' for Inactive)
REMARK    1  A    between atoms: N_1  and  CA_2 
REMARK    2  A    between atoms: CA_2  and  CB_5 
REMARK    3  A    between atoms: CA_2  and  C_3 
REMARK       I    between atoms: C_3  and  N_12 
REMARK    4  A    between atoms: CB_5  and  CG_6 
REMARK    5  A    between atoms: N_12  and  CA_13 
REMARK    6  A    between atoms: CA_13  and  CB_16 
REMARK    7  A    between atoms: CA_13  and  C_14 
REMARK       I    between atoms: C_14  and  N_21 
REMARK    8  A    between atoms: CB_16  and  CG_17 
REMARK    9  A    between atoms: N_21  and  CA_22 
REMARK   10  A    between atoms: CA_22  and  CB_25 
REMARK   11  A    between atoms: CA_22  and  C_23 
REMARK       I    between atoms: C_23  and  N_30 
REMARK   12  A    between atoms: CB_25  and  CG_26 
REMARK   13  A    between atoms: N_30  and  CA_31 
REMARK   14  A    between atoms: CA_31  and  CB_34 
REMARK   15  A    between atoms: CA_31  and  C_32 
REMARK       I    between atoms: C_32  and  N_38 
REMARK   16  A    between atoms: N_38  and  CA_39 
REMARK   17  A    between atoms: CA_39  and  CB_42 
REMARK   18  A    between atoms: CA_39  and  C_40 
REMARK       I    between atoms: C_40  and  N_47 
REMARK   19  A    between atoms: CB_42  and  CG_43 
REMARK   20  A    between atoms: N_47  and  CA_48 
REMARK   21  A    between atoms: CA_48  and  C_49 
REMARK   22  A    between atoms: CA_48  and  CB_51 
REMARK       I    between atoms: C_49  and  N_56 
REMARK   23  A    between atoms: CB_51  and  CG_52 
REMARK   24  A    between atoms: N_56  and  CA_57 
REMARK   25  A    between atoms: CA_57  and  C_58 
REMARK   26  A    between atoms: CA_57  and  CB_60 
REMARK   27  A    between atoms: CB_60  and  CG_61 
REMARK   28  A    between atoms: CG_61  and  CD_62 
ROOT
ATOM      1  N   LEU     1      58.432  40.329  51.029  1.00  0.00    -0.058 N 
ATOM      2  H1  LEU     1      59.409  40.253  50.825  1.00 99.99     0.276 HD
ATOM      3  H2  LEU     1      58.125  39.495  51.457  1.00 99.99     0.276 HD
ATOM      4  H3  LEU     1      57.931  40.363  50.163  1.00 99.99     0.276 HD
ENDROOT
BRANCH   1   5
ATOM      5  CA  LEU     1      58.166  41.529  51.865  1.00  0.00     0.255 C 
BRANCH   5   6
ATOM      6  CB  LEU     1      57.067  41.290  52.914  1.00  0.00     0.040 C 
BRANCH   6   7
ATOM      7  CG  LEU     1      55.688  41.836  52.519  1.00  0.00     0.002 C 
ATOM      8  CD1 LEU     1      55.850  43.236  51.922  1.00  0.00     0.000 C 
ATOM      9  CD2 LEU     1      54.984  40.931  51.499  1.00  0.00     0.000 C 
ENDBRANCH   6   7
ENDBRANCH   5   6
BRANCH   5  10
ATOM     10  C   LEU     1      59.372  42.201  52.558  1.00  0.00     0.259 C 
ATOM     11  O   LEU     1      59.188  43.211  53.236  1.00  0.00    -0.271 OA
ATOM     12  N   LEU     2      60.596  41.737  52.279  1.00  0.00    -0.338 N 
ATOM     13  H   LEU     2      60.737  40.904  51.744  1.00 99.99     0.164 HD
BRANCH  12  14
ATOM     14  CA  LEU     2      61.831  42.343  52.839  1.00  0.00     0.159 C 
BRANCH  14  15
ATOM     15  CB  LEU     2      62.945  41.292  52.946  1.00  0.00     0.032 C 
BRANCH  15  16
ATOM     16  CG  LEU     2      62.615  39.995  52.199  1.00  0.00     0.002 C 
ATOM     17  CD2 LEU     2      62.372  38.839  53.176  1.00  0.00     0.000 C 
ATOM     18  CD1 LEU     2      63.765  39.635  51.258  1.00  0.00     0.000 C 
ENDBRANCH  15  16
ENDBRANCH  14  15
BRANCH  14  19
ATOM     19  C   LEU     2      62.296  43.550  52.007  1.00  0.00     0.251 C 
ATOM     20  N   ASP     3      62.863  43.201  50.858  1.00  0.00    -0.337 N 
ATOM     21  H   ASP     3      63.192  42.263  50.759  1.00 99.99     0.164 HD
ATOM     22  O   LEU     2      61.961  44.694  52.290  1.00  0.00    -0.271 OA
BRANCH  20  23
ATOM     23  CA  ASP     3      63.104  44.039  49.666  1.00  0.00     0.170 C 
BRANCH  23  24
ATOM     24  CB  ASP     3      63.882  45.284  50.145  1.00  0.00     0.129 C 
BRANCH  24  25
ATOM     25  CG  ASP     3      63.307  46.615  49.631  1.00  0.00     0.188 C 
ATOM     26  OD2 ASP     3      62.066  46.728  49.629  1.00  0.00    -0.647 OA
ATOM     27  OD1 ASP     3      64.086  47.386  49.022  1.00  0.00    -0.647 OA
ENDBRANCH  24  25
ENDBRANCH  23  24
BRANCH  23  28
ATOM     28  C   ASP     3      63.742  43.289  48.471  1.00  0.00     0.251 C 
ATOM     29  O   ASP     3      63.783  42.062  48.494  1.00  0.00    -0.271 OA
ATOM     30  N   VAL     4      64.432  44.035  47.603  1.00  0.00    -0.338 N 
ATOM     31  H   VAL     4      64.402  45.032  47.652  1.00 99.99     0.164 HD
BRANCH  30  32
ATOM     32  CA  VAL     4      65.179  43.566  46.405  1.00  0.00     0.159 C 
BRANCH  32  33
ATOM     33  CB  VAL     4      66.507  42.914  46.881  1.00  0.00     0.029 C 
ATOM     34  CG1 VAL     4      67.595  42.853  45.803  1.00  0.00     0.002 C 
ATOM     35  CG2 VAL     4      67.128  43.646  48.076  1.00  0.00     0.002 C 
ENDBRANCH  32  33
BRANCH  32  36
ATOM     36  C   VAL     4      64.372  42.637  45.453  1.00  0.00     0.251 C 
ATOM     37  O   VAL     4      63.783  43.102  44.481  1.00  0.00    -0.271 OA
ATOM     38  N   LEU     5      64.387  41.329  45.706  1.00  0.00    -0.338 N 
ATOM     39  H   LEU     5      64.990  40.931  46.397  1.00 99.99     0.164 HD
BRANCH  38  40
ATOM     40  CA  LEU     5      63.597  40.326  44.954  1.00  0.00     0.159 C 
BRANCH  40  41
ATOM     41  CB  LEU     5      64.481  39.115  44.630  1.00  0.00     0.032 C 
BRANCH  41  42
ATOM     42  CG  LEU     5      65.680  38.933  45.568  1.00  0.00     0.002 C 
ATOM     43  CD2 LEU     5      66.987  38.794  44.783  1.00  0.00     0.000 C 
ATOM     44  CD1 LEU     5      65.459  37.680  46.418  1.00  0.00     0.000 C 
ENDBRANCH  41  42
ENDBRANCH  40  41
BRANCH  40  45
ATOM     45  C   LEU     5      62.324  39.825  45.670  1.00  0.00     0.251 C 
ATOM     46  O   LEU     5      61.714  38.848  45.241  1.00  0.00    -0.271 OA
ATOM     47  N   LEU     6      61.991  40.455  46.795  1.00  0.00    -0.338 N 
ATOM     48  H   LEU     6      62.557  41.205  47.140  1.00 99.99     0.164 HD
BRANCH  47  49
ATOM     49  CA  LEU     6      60.847  40.084  47.658  1.00  0.00     0.159 C 
BRANCH  49  50
ATOM     50  C   LEU     6      60.112  41.289  48.271  1.00  0.00     0.251 C 
ATOM     51  N   GLU     7      59.068  41.742  47.577  1.00  0.00    -0.336 N 
ATOM     52  H   GLU     7      58.776  41.286  46.733  1.00 99.99     0.164 HD
ATOM     53  O   LEU     6      60.539  41.834  49.286  1.00  0.00    -0.271 OA
BRANCH  51  54
ATOM     54  CA  GLU     7      58.222  42.893  47.969  1.00  0.00     0.169 C 
BRANCH  54  55
ATOM     55  C   GLU     7      56.794  42.411  48.299  1.00  0.00     0.206 C 
ATOM     56  O   GLU     7      55.882  43.264  48.332  1.00 99.99    -0.646 OA
ATOM     57  OXT GLU     7      56.670  41.196  48.579  1.00 99.99    -0.646 OA
ENDBRANCH  54  55
BRANCH  54  58
ATOM     58  CB  GLU     7      58.165  43.913  46.818  1.00  0.00     0.044 C 
BRANCH  58  59
ATOM     59  CG  GLU     7      58.231  43.277  45.419  1.00  0.00     0.100 C 
BRANCH  59  60
ATOM     60  CD  GLU     7      59.571  43.446  44.686  1.00  0.00     0.185 C 
ATOM     61  OE1 GLU     7      60.550  42.763  45.066  1.00  0.00    -0.647 OA
ATOM     62  OE2 GLU     7      59.614  44.329  43.802  1.00  0.00    -0.647 OA
ENDBRANCH  59  60
ENDBRANCH  58  59
ENDBRANCH  54  58
ENDBRANCH  51  54
ENDBRANCH  49  50
BRANCH  49  63
ATOM     63  CB  LEU     6      61.334  39.179  48.800  1.00  0.00     0.032 C 
BRANCH  63  64
ATOM     64  CG  LEU     6      60.928  37.706  48.668  1.00  0.00     0.002 C 
ATOM     65  CD2 LEU     6      60.432  37.140  50.002  1.00  0.00     0.000 C 
ATOM     66  CD1 LEU     6      62.128  36.892  48.182  1.00  0.00     0.000 C 
ENDBRANCH  63  64
ENDBRANCH  49  63
ENDBRANCH  47  49
ENDBRANCH  40  45
ENDBRANCH  38  40
ENDBRANCH  32  36
ENDBRANCH  30  32
ENDBRANCH  23  28
ENDBRANCH  20  23
ENDBRANCH  14  19
ENDBRANCH  12  14
ENDBRANCH   5  10
ENDBRANCH   1   5
TORSDOF 28
ENDMDL
MODEL 3
REMARK VINA RESULT:      -5.3      2.540      5.786
REMARK  28 active torsions:
REMARK  status: ('A' for Active; 'I' for Inactive)
REMARK    1  A    between atoms: N_1  and  CA_2 
REMARK    2  A    between atoms: CA_2  and  CB_5 
REMARK    3  A    between atoms: CA_2  and  C_3 
REMARK       I    between atoms: C_3  and  N_12 
REMARK    4  A    between atoms: CB_5  and  CG_6 
REMARK    5  A    between atoms: N_12  and  CA_13 
REMARK    6  A    between atoms: CA_13  and  CB_16 
REMARK    7  A    between atoms: CA_13  and  C_14 
REMARK       I    between atoms: C_14  and  N_21 
REMARK    8  A    between atoms: CB_16  and  CG_17 
REMARK    9  A    between atoms: N_21  and  CA_22 
REMARK   10  A    between atoms: CA_22  and  CB_25 
REMARK   11  A    between atoms: CA_22  and  C_23 
REMARK       I    between atoms: C_23  and  N_30 
REMARK   12  A    between atoms: CB_25  and  CG_26 
REMARK   13  A    between atoms: N_30  and  CA_31 
REMARK   14  A    between atoms: CA_31  and  CB_34 
REMARK   15  A    between atoms: CA_31  and  C_32 
REMARK       I    between atoms: C_32  and  N_38 
REMARK   16  A    between atoms: N_38  and  CA_39 
REMARK   17  A    between atoms: CA_39  and  CB_42 
REMARK   18  A    between atoms: CA_39  and  C_40 
REMARK       I    between atoms: C_40  and  N_47 
REMARK   19  A    between atoms: CB_42  and  CG_43 
REMARK   20  A    between atoms: N_47  and  CA_48 
REMARK   21  A    between atoms: CA_48  and  C_49 
REMARK   22  A    between atoms: CA_48  and  CB_51 
REMARK       I    between atoms: C_49  and  N_56 
REMARK   23  A    between atoms: CB_51  and  CG_52 
REMARK   24  A    between atoms: N_56  and  CA_57 
REMARK   25  A    between atoms: CA_57  and  C_58 
REMARK   26  A    between atoms: CA_57  and  CB_60 
REMARK   27  A    between atoms: CB_60  and  CG_61 
REMARK   28  A    between atoms: CG_61  and  CD_62 
ROOT
ATOM      1  N   LEU     1      56.897  38.130  49.384  1.00  0.00    -0.058 N 
ATOM      2  H1  LEU     1      55.918  37.967  49.253  1.00 99.99     0.276 HD
ATOM      3  H2  LEU     1      57.338  37.279  49.622  1.00 99.99     0.276 HD
ATOM      4  H3  LEU     1      57.016  38.706  50.193  1.00 99.99     0.276 HD
ENDROOT
BRANCH   1   5
ATOM      5  CA  LEU     1      57.487  38.756  48.172  1.00  0.00     0.255 C 
BRANCH   5   6
ATOM      6  CB  LEU     1      56.621  38.553  46.917  1.00  0.00     0.040 C 
BRANCH   6   7
ATOM      7  CG  LEU     1      57.233  37.607  45.874  1.00  0.00     0.002 C 
ATOM      8  CD1 LEU     1      58.632  38.101  45.501  1.00  0.00     0.000 C 
ATOM      9  CD2 LEU     1      57.328  36.167  46.394  1.00  0.00     0.000 C 
ENDBRANCH   6   7
ENDBRANCH   5   6
BRANCH   5  10
ATOM     10  C   LEU     1      57.890  40.245  48.258  1.00  0.00     0.259 C 
ATOM     11  O   LEU     1      58.378  40.675  49.303  1.00  0.00    -0.271 OA
ATOM     12  N   LEU     2      57.565  41.044  47.235  1.00  0.00    -0.338 N 
ATOM     13  H   LEU     2      57.189  40.684  46.382  1.00 99.99     0.164 HD
BRANCH  12  14
ATOM     14  CA  LEU     2      57.849  42.502  47.234  1.00  0.00     0.159 C 
BRANCH  14  15
ATOM     15  CB  LEU     2      58.045  43.010  45.799  1.00  0.00     0.032 C 
BRANCH  15  16
ATOM     16  CG  LEU     2      59.493  43.417  45.503  1.00  0.00     0.002 C 
ATOM     17  CD2 LEU     2      59.754  43.480  43.993  1.00  0.00     0.000 C 
ATOM     18  CD1 LEU     2      60.452  42.413  46.145  1.00  0.00     0.000 C 
ENDBRANCH  15  16
ENDBRANCH  14  15
BRANCH  14  19
ATOM     19  C   LEU     2      56.741  43.294  47.949  1.00  0.00     0.251 C 
ATOM     20  N   ASP     3      55.929  42.522  48.662  1.00  0.00    -0.337 N 
ATOM     21  H   ASP     3      55.910  41.543  48.464  1.00 99.99     0.164 HD
ATOM     22  O   LEU     2      56.767  44.516  48.019  1.00  0.00    -0.271 OA
BRANCH  20  23
ATOM     23  CA  ASP     3      55.000  42.923  49.739  1.00  0.00     0.170 C 
BRANCH  23  24
ATOM     24  CB  ASP     3      53.742  42.039  49.595  1.00  0.00     0.129 C 
BRANCH  24  25
ATOM     25  CG  ASP     3      54.012  40.671  48.946  1.00  0.00     0.188 C 
ATOM     26  OD2 ASP     3      54.631  39.836  49.633  1.00  0.00    -0.647 OA
ATOM     27  OD1 ASP     3      53.825  40.568  47.710  1.00  0.00    -0.647 OA
ENDBRANCH  24  25
ENDBRANCH  23  24
BRANCH  23  28
ATOM     28  C   ASP     3      55.627  42.943  51.155  1.00  0.00     0.251 C 
ATOM     29  O   ASP     3      55.513  43.956  51.840  1.00  0.00    -0.271 OA
ATOM     30  N   VAL     4      56.465  41.945  51.446  1.00  0.00    -0.338 N 
ATOM     31  H   VAL     4      56.555  41.160  50.834  1.00 99.99     0.164 HD
BRANCH  30  32
ATOM     32  CA  VAL     4      57.234  41.751  52.705  1.00  0.00     0.159 C 
BRANCH  32  33
ATOM     33  CB  VAL     4      57.298  40.228  53.008  1.00  0.00     0.029 C 
ATOM     34  CG1 VAL     4      57.807  39.891  54.414  1.00  0.00     0.002 C 
ATOM     35  CG2 VAL     4      55.936  39.540  52.868  1.00  0.00     0.002 C 
ENDBRANCH  32  33
BRANCH  32  36
ATOM     36  C   VAL     4      58.639  42.417  52.724  1.00  0.00     0.251 C 
ATOM     37  O   VAL     4      58.856  43.390  53.442  1.00  0.00    -0.271 OA
ATOM     38  N   LEU     5      59.595  41.868  51.976  1.00  0.00    -0.338 N 
ATOM     39  H   LEU     5      59.468  40.989  51.518  1.00 99.99     0.164 HD
BRANCH  38  40
ATOM     40  CA  LEU     5      60.954  42.436  51.813  1.00  0.00     0.159 C 
BRANCH  40  41
ATOM     41  CB  LEU     5      61.989  41.460  52.386  1.00  0.00     0.032 C 
BRANCH  41  42
ATOM     42  CG  LEU     5      61.404  40.372  53.294  1.00  0.00     0.002 C 
ATOM     43  CD2 LEU     5      61.917  40.511  54.731  1.00  0.00     0.000 C 
ATOM     44  CD1 LEU     5      61.796  39.000  52.743  1.00  0.00     0.000 C 
ENDBRANCH  41  42
ENDBRANCH  40  41
BRANCH  40  45
ATOM     45  C   LEU     5      61.350  42.774  50.359  1.00  0.00     0.251 C 
ATOM     46  O   LEU     5      60.489  43.064  49.532  1.00  0.00    -0.271 OA
ATOM     47  N   LEU     6      62.655  42.809  50.093  1.00  0.00    -0.338 N 
ATOM     48  H   LEU     6      63.322  42.628  50.817  1.00 99.99     0.164 HD
BRANCH  47  49
ATOM     49  CA  LEU     6      63.236  43.174  48.782  1.00  0.00     0.159 C 
BRANCH  49  50
ATOM     50  C   LEU     6      64.507  42.385  48.421  1.00  0.00     0.251 C 
ATOM     51  N   GLU     7      65.295  42.949  47.505  1.00  0.00    -0.336 N 
ATOM     52  H   GLU     7      65.072  43.848  47.120  1.00 99.99     0.164 HD
ATOM     53  O   LEU     6      64.708  41.269  48.893  1.00  0.00    -0.271 OA
BRANCH  51  54
ATOM     54  CA  GLU     7      66.559  42.367  46.999  1.00  0.00     0.169 C 
BRANCH  54  55
ATOM     55  C   GLU     7      67.755  42.922  47.801  1.00  0.00     0.206 C 
ATOM     56  O   GLU     7      68.900  42.535  47.486  1.00 99.99    -0.646 OA
ATOM     57  OXT GLU     7      67.475  43.672  48.764  1.00 99.99    -0.646 OA
ENDBRANCH  54  55
BRANCH  54  58
ATOM     58  CB  GLU     7      66.734  42.719  45.510  1.00  0.00     0.044 C 
BRANCH  58  59
ATOM     59  CG  GLU     7      65.927  41.820  44.559  1.00  0.00     0.100 C 
BRANCH  59  60
ATOM     60  CD  GLU     7      64.404  42.016  44.608  1.00  0.00     0.185 C 
ATOM     61  OE1 GLU     7      63.667  41.023  44.406  1.00  0.00    -0.647 OA
ATOM     62  OE2 GLU     7      63.998  43.188  44.765  1.00  0.00    -0.647 OA
ENDBRANCH  59  60
ENDBRANCH  58  59
ENDBRANCH  54  58
ENDBRANCH  51  54
ENDBRANCH  49  50
BRANCH  49  63
ATOM     63  CB  LEU     6      63.574  44.673  48.767  1.00  0.00     0.032 C 
BRANCH  63  64
ATOM     64  CG  LEU     6      63.974  45.253  50.129  1.00  0.00     0.002 C 
ATOM     65  CD2 LEU     6      62.882  46.171  50.689  1.00  0.00     0.000 C 
ATOM     66  CD1 LEU     6      65.276  46.041  49.981  1.00  0.00     0.000 C 
ENDBRANCH  63  64
ENDBRANCH  49  63
ENDBRANCH  47  49
ENDBRANCH  40  45
ENDBRANCH  38  40
ENDBRANCH  32  36
ENDBRANCH  30  32
ENDBRANCH  23  28
ENDBRANCH  20  23
ENDBRANCH  14  19
ENDBRANCH  12  14
ENDBRANCH   5  10
ENDBRANCH   1   5
TORSDOF 28
ENDMDL
MODEL 4
REMARK VINA RESULT:      -5.3      2.777      4.922
REMARK  28 active torsions:
REMARK  status: ('A' for Active; 'I' for Inactive)
REMARK    1  A    between atoms: N_1  and  CA_2 
REMARK    2  A    between atoms: CA_2  and  CB_5 
REMARK    3  A    between atoms: CA_2  and  C_3 
REMARK       I    between atoms: C_3  and  N_12 
REMARK    4  A    between atoms: CB_5  and  CG_6 
REMARK    5  A    between atoms: N_12  and  CA_13 
REMARK    6  A    between atoms: CA_13  and  CB_16 
REMARK    7  A    between atoms: CA_13  and  C_14 
REMARK       I    between atoms: C_14  and  N_21 
REMARK    8  A    between atoms: CB_16  and  CG_17 
REMARK    9  A    between atoms: N_21  and  CA_22 
REMARK   10  A    between atoms: CA_22  and  CB_25 
REMARK   11  A    between atoms: CA_22  and  C_23 
REMARK       I    between atoms: C_23  and  N_30 
REMARK   12  A    between atoms: CB_25  and  CG_26 
REMARK   13  A    between atoms: N_30  and  CA_31 
REMARK   14  A    between atoms: CA_31  and  CB_34 
REMARK   15  A    between atoms: CA_31  and  C_32 
REMARK       I    between atoms: C_32  and  N_38 
REMARK   16  A    between atoms: N_38  and  CA_39 
REMARK   17  A    between atoms: CA_39  and  CB_42 
REMARK   18  A    between atoms: CA_39  and  C_40 
REMARK       I    between atoms: C_40  and  N_47 
REMARK   19  A    between atoms: CB_42  and  CG_43 
REMARK   20  A    between atoms: N_47  and  CA_48 
REMARK   21  A    between atoms: CA_48  and  C_49 
REMARK   22  A    between atoms: CA_48  and  CB_51 
REMARK       I    between atoms: C_49  and  N_56 
REMARK   23  A    between atoms: CB_51  and  CG_52 
REMARK   24  A    between atoms: N_56  and  CA_57 
REMARK   25  A    between atoms: CA_57  and  C_58 
REMARK   26  A    between atoms: CA_57  and  CB_60 
REMARK   27  A    between atoms: CB_60  and  CG_61 
REMARK   28  A    between atoms: CG_61  and  CD_62 
ROOT
ATOM      1  N   LEU     1      59.691  43.335  47.731  1.00  0.00    -0.058 N 
ATOM      2  H1  LEU     1      59.691  42.364  47.491  1.00 99.99     0.276 HD
ATOM      3  H2  LEU     1      60.460  43.775  47.297  1.00 99.99     0.276 HD
ATOM      4  H3  LEU     1      59.877  43.418  48.710  1.00 99.99     0.276 HD
ENDROOT
BRANCH   1   5
ATOM      5  CA  LEU     1      58.395  43.963  47.364  1.00  0.00     0.255 C 
BRANCH   5   6
ATOM      6  CB  LEU     1      58.053  43.792  45.874  1.00  0.00     0.040 C 
BRANCH   6   7
ATOM      7  CG  LEU     1      58.989  42.838  45.117  1.00  0.00     0.002 C 
ATOM      8  CD1 LEU     1      58.157  41.767  44.408  1.00  0.00     0.000 C 
ATOM      9  CD2 LEU     1      59.845  43.579  44.082  1.00  0.00     0.000 C 
ENDBRANCH   6   7
ENDBRANCH   5   6
BRANCH   5  10
ATOM     10  C   LEU     1      57.153  43.587  48.202  1.00  0.00     0.259 C 
ATOM     11  O   LEU     1      56.179  44.339  48.202  1.00  0.00    -0.271 OA
ATOM     12  N   LEU     2      57.237  42.520  49.006  1.00  0.00    -0.338 N 
ATOM     13  H   LEU     2      58.022  41.902  48.984  1.00 99.99     0.164 HD
BRANCH  12  14
ATOM     14  CA  LEU     2      56.128  42.100  49.900  1.00  0.00     0.159 C 
BRANCH  14  15
ATOM     15  CB  LEU     2      55.762  40.631  49.649  1.00  0.00     0.032 C 
BRANCH  15  16
ATOM     16  CG  LEU     2      54.250  40.381  49.662  1.00  0.00     0.002 C 
ATOM     17  CD2 LEU     2      53.471  41.690  49.485  1.00  0.00     0.000 C 
ATOM     18  CD1 LEU     2      53.847  39.722  50.982  1.00  0.00     0.000 C 
ENDBRANCH  15  16
ENDBRANCH  14  15
BRANCH  14  19
ATOM     19  C   LEU     2      56.476  42.332  51.380  1.00  0.00     0.251 C 
ATOM     20  N   ASP     3      57.151  41.322  51.919  1.00  0.00    -0.337 N 
ATOM     21  H   ASP     3      57.125  40.437  51.458  1.00 99.99     0.164 HD
ATOM     22  O   LEU     2      56.338  43.428  51.910  1.00  0.00    -0.271 OA
BRANCH  20  23
ATOM     23  CA  ASP     3      57.950  41.318  53.161  1.00  0.00     0.170 C 
BRANCH  23  24
ATOM     24  CB  ASP     3      58.136  39.840  53.567  1.00  0.00     0.129 C 
BRANCH  24  25
ATOM     25  CG  ASP     3      57.959  38.847  52.405  1.00  0.00     0.188 C 
ATOM     26  OD2 ASP     3      57.258  37.841  52.628  1.00  0.00    -0.647 OA
ATOM     27  OD1 ASP     3      58.718  38.972  51.415  1.00  0.00    -0.647 OA
ENDBRANCH  24  25
ENDBRANCH  23  24
BRANCH  23  28
ATOM     28  C   ASP     3      59.258  42.145  53.087  1.00  0.00     0.251 C 
ATOM     29  O   ASP     3      59.207  43.354  53.298  1.00  0.00    -0.271 OA
ATOM     30  N   VAL     4      60.318  41.531  52.555  1.00  0.00    -0.338 N 
ATOM     31  H   VAL     4      60.295  40.551  52.361  1.00 99.99     0.164 HD
BRANCH  30  32
ATOM     32  CA  VAL     4      61.670  42.106  52.323  1.00  0.00     0.159 C 
BRANCH  32  33
ATOM     33  CB  VAL     4      62.717  40.968  52.478  1.00  0.00     0.029 C 
ATOM     34  CG1 VAL     4      63.373  40.906  53.863  1.00  0.00     0.002 C 
ATOM     35  CG2 VAL     4      62.122  39.579  52.223  1.00  0.00     0.002 C 
ENDBRANCH  32  33
BRANCH  32  36
ATOM     36  C   VAL     4      61.832  42.880  50.984  1.00  0.00     0.251 C 
ATOM     37  O   VAL     4      60.848  43.320  50.396  1.00  0.00    -0.271 OA
ATOM     38  N   LEU     5      63.069  43.083  50.532  1.00  0.00    -0.338 N 
ATOM     39  H   LEU     5      63.875  42.868  51.084  1.00 99.99     0.164 HD
BRANCH  38  40
ATOM     40  CA  LEU     5      63.388  43.718  49.231  1.00  0.00     0.159 C 
BRANCH  40  41
ATOM     41  CB  LEU     5      64.747  44.423  49.324  1.00  0.00     0.032 C 
BRANCH  41  42
ATOM     42  CG  LEU     5      64.722  45.906  48.937  1.00  0.00     0.002 C 
ATOM     43  CD2 LEU     5      65.946  46.645  49.488  1.00  0.00     0.000 C 
ATOM     44  CD1 LEU     5      63.448  46.544  49.493  1.00  0.00     0.000 C 
ENDBRANCH  41  42
ENDBRANCH  40  41
BRANCH  40  45
ATOM     45  C   LEU     5      63.416  42.755  48.025  1.00  0.00     0.251 C 
ATOM     46  O   LEU     5      62.418  42.102  47.728  1.00  0.00    -0.271 OA
ATOM     47  N   LEU     6      64.534  42.745  47.301  1.00  0.00    -0.338 N 
ATOM     48  H   LEU     6      65.298  43.343  47.544  1.00 99.99     0.164 HD
BRANCH  47  49
ATOM     49  CA  LEU     6      64.733  41.941  46.073  1.00  0.00     0.159 C 
BRANCH  49  50
ATOM     50  C   LEU     6      66.048  41.142  46.057  1.00  0.00     0.251 C 
ATOM     51  N   GLU     7      66.830  41.297  47.126  1.00  0.00    -0.336 N 
ATOM     52  H   GLU     7      66.539  41.872  47.895  1.00 99.99     0.164 HD
ATOM     53  O   LEU     6      66.371  40.486  45.071  1.00  0.00    -0.271 OA
BRANCH  51  54
ATOM     54  CA  GLU     7      68.141  40.637  47.322  1.00  0.00     0.169 C 
BRANCH  54  55
ATOM     55  C   GLU     7      68.204  39.993  48.723  1.00  0.00     0.206 C 
ATOM     56  O   GLU     7      67.154  39.956  49.397  1.00 99.99    -0.646 OA
ATOM     57  OXT GLU     7      69.335  39.616  49.108  1.00 99.99    -0.646 OA
ENDBRANCH  54  55
BRANCH  54  58
ATOM     58  CB  GLU     7      69.271  41.672  47.182  1.00  0.00     0.044 C 
BRANCH  58  59
ATOM     59  CG  GLU     7      69.584  42.060  45.727  1.00  0.00     0.100 C 
BRANCH  59  60
ATOM     60  CD  GLU     7      69.234  43.508  45.346  1.00  0.00     0.185 C 
ATOM     61  OE1 GLU     7      70.023  44.138  44.605  1.00  0.00    -0.647 OA
ATOM     62  OE2 GLU     7      68.212  43.992  45.879  1.00  0.00    -0.647 OA
ENDBRANCH  59  60
ENDBRANCH  58  59
ENDBRANCH  54  58
ENDBRANCH  51  54
ENDBRANCH  49  50
BRANCH  49  63
ATOM     63  CB  LEU     6      64.708  42.863  44.844  1.00  0.00     0.032 C 
BRANCH  63  64
ATOM     64  CG  LEU     6      63.677  42.480  43.776  1.00  0.00     0.002 C 
ATOM     65  CD2 LEU     6      62.793  41.319  44.243  1.00  0.00     0.000 C 
ATOM     66  CD1 LEU     6      64.403  42.084  42.490  1.00  0.00     0.000 C 
ENDBRANCH  63  64
ENDBRANCH  49  63
ENDBRANCH  47  49
ENDBRANCH  40  45
ENDBRANCH  38  40
ENDBRANCH  32  36
ENDBRANCH  30  32
ENDBRANCH  23  28
ENDBRANCH  20  23
ENDBRANCH  14  19
ENDBRANCH  12  14
ENDBRANCH   5  10
ENDBRANCH   1   5
TORSDOF 28
ENDMDL
MODEL 5
REMARK VINA RESULT:      -5.3      2.699      5.887
REMARK  28 active torsions:
REMARK  status: ('A' for Active; 'I' for Inactive)
REMARK    1  A    between atoms: N_1  and  CA_2 
REMARK    2  A    between atoms: CA_2  and  CB_5 
REMARK    3  A    between atoms: CA_2  and  C_3 
REMARK       I    between atoms: C_3  and  N_12 
REMARK    4  A    between atoms: CB_5  and  CG_6 
REMARK    5  A    between atoms: N_12  and  CA_13 
REMARK    6  A    between atoms: CA_13  and  CB_16 
REMARK    7  A    between atoms: CA_13  and  C_14 
REMARK       I    between atoms: C_14  and  N_21 
REMARK    8  A    between atoms: CB_16  and  CG_17 
REMARK    9  A    between atoms: N_21  and  CA_22 
REMARK   10  A    between atoms: CA_22  and  CB_25 
REMARK   11  A    between atoms: CA_22  and  C_23 
REMARK       I    between atoms: C_23  and  N_30 
REMARK   12  A    between atoms: CB_25  and  CG_26 
REMARK   13  A    between atoms: N_30  and  CA_31 
REMARK   14  A    between atoms: CA_31  and  CB_34 
REMARK   15  A    between atoms: CA_31  and  C_32 
REMARK       I    between atoms: C_32  and  N_38 
REMARK   16  A    between atoms: N_38  and  CA_39 
REMARK   17  A    between atoms: CA_39  and  CB_42 
REMARK   18  A    between atoms: CA_39  and  C_40 
REMARK       I    between atoms: C_40  and  N_47 
REMARK   19  A    between atoms: CB_42  and  CG_43 
REMARK   20  A    between atoms: N_47  and  CA_48 
REMARK   21  A    between atoms: CA_48  and  C_49 
REMARK   22  A    between atoms: CA_48  and  CB_51 
REMARK       I    between atoms: C_49  and  N_56 
REMARK   23  A    between atoms: CB_51  and  CG_52 
REMARK   24  A    between atoms: N_56  and  CA_57 
REMARK   25  A    between atoms: CA_57  and  C_58 
REMARK   26  A    between atoms: CA_57  and  CB_60 
REMARK   27  A    between atoms: CB_60  and  CG_61 
REMARK   28  A    between atoms: CG_61  and  CD_62 
ROOT
ATOM      1  N   LEU     1      57.884  38.262  49.115  1.00  0.00    -0.058 N 
ATOM      2  H1  LEU     1      57.065  37.692  49.045  1.00 99.99     0.276 HD
ATOM      3  H2  LEU     1      58.638  37.707  49.427  1.00 99.99     0.276 HD
ATOM      4  H3  LEU     1      57.744  38.926  49.850  1.00 99.99     0.276 HD
ENDROOT
BRANCH   1   5
ATOM      5  CA  LEU     1      58.168  38.930  47.818  1.00  0.00     0.255 C 
BRANCH   5   6
ATOM      6  CB  LEU     1      57.076  38.672  46.767  1.00  0.00     0.040 C 
BRANCH   6   7
ATOM      7  CG  LEU     1      57.485  37.691  45.659  1.00  0.00     0.002 C 
ATOM      8  CD1 LEU     1      58.998  37.471  45.711  1.00  0.00     0.000 C 
ATOM      9  CD2 LEU     1      56.773  36.339  45.801  1.00  0.00     0.000 C 
ENDBRANCH   6   7
ENDBRANCH   5   6
BRANCH   5  10
ATOM     10  C   LEU     1      58.481  40.443  47.844  1.00  0.00     0.259 C 
ATOM     11  O   LEU     1      59.121  40.907  48.787  1.00  0.00    -0.271 OA
ATOM     12  N   LEU     2      57.925  41.216  46.904  1.00  0.00    -0.338 N 
ATOM     13  H   LEU     2      57.425  40.830  46.130  1.00 99.99     0.164 HD
BRANCH  12  14
ATOM     14  CA  LEU     2      58.107  42.690  46.866  1.00  0.00     0.159 C 
BRANCH  14  15
ATOM     15  CB  LEU     2      58.092  43.195  45.416  1.00  0.00     0.032 C 
BRANCH  15  16
ATOM     16  CG  LEU     2      59.470  43.658  44.931  1.00  0.00     0.002 C 
ATOM     17  CD2 LEU     2      59.611  43.485  43.414  1.00  0.00     0.000 C 
ATOM     18  CD1 LEU     2      60.563  42.857  45.640  1.00  0.00     0.000 C 
ENDBRANCH  15  16
ENDBRANCH  14  15
BRANCH  14  19
ATOM     19  C   LEU     2      57.044  43.413  47.709  1.00  0.00     0.251 C 
ATOM     20  N   ASP     3      56.316  42.584  48.448  1.00  0.00    -0.337 N 
ATOM     21  H   ASP     3      56.306  41.616  48.203  1.00 99.99     0.164 HD
ATOM     22  O   LEU     2      57.045  44.631  47.839  1.00  0.00    -0.271 OA
BRANCH  20  23
ATOM     23  CA  ASP     3      55.472  42.905  49.617  1.00  0.00     0.170 C 
BRANCH  23  24
ATOM     24  CB  ASP     3      54.196  42.044  49.497  1.00  0.00     0.129 C 
BRANCH  24  25
ATOM     25  CG  ASP     3      54.417  40.697  48.788  1.00  0.00     0.188 C 
ATOM     26  OD2 ASP     3      55.154  39.873  49.364  1.00  0.00    -0.647 OA
ATOM     27  OD1 ASP     3      54.064  40.609  47.588  1.00  0.00    -0.647 OA
ENDBRANCH  24  25
ENDBRANCH  23  24
BRANCH  23  28
ATOM     28  C   ASP     3      56.199  42.809  50.982  1.00  0.00     0.251 C 
ATOM     29  O   ASP     3      56.034  43.705  51.806  1.00  0.00    -0.271 OA
ATOM     30  N   VAL     4      57.157  41.883  51.079  1.00  0.00    -0.338 N 
ATOM     31  H   VAL     4      57.280  41.201  50.360  1.00 99.99     0.164 HD
BRANCH  30  32
ATOM     32  CA  VAL     4      58.034  41.613  52.249  1.00  0.00     0.159 C 
BRANCH  32  33
ATOM     33  CB  VAL     4      58.227  40.076  52.371  1.00  0.00     0.029 C 
ATOM     34  CG1 VAL     4      58.983  39.639  53.631  1.00  0.00     0.002 C 
ATOM     35  CG2 VAL     4      56.897  39.314  52.382  1.00  0.00     0.002 C 
ENDBRANCH  32  33
BRANCH  32  36
ATOM     36  C   VAL     4      59.388  42.380  52.243  1.00  0.00     0.251 C 
ATOM     37  O   VAL     4      59.642  43.202  53.120  1.00  0.00    -0.271 OA
ATOM     38  N   LEU     5      60.267  42.078  51.288  1.00  0.00    -0.338 N 
ATOM     39  H   LEU     5      60.131  41.303  50.672  1.00 99.99     0.164 HD
BRANCH  38  40
ATOM     40  CA  LEU     5      61.556  42.782  51.089  1.00  0.00     0.159 C 
BRANCH  40  41
ATOM     41  CB  LEU     5      62.711  41.853  51.482  1.00  0.00     0.032 C 
BRANCH  41  42
ATOM     42  CG  LEU     5      62.279  40.451  51.927  1.00  0.00     0.002 C 
ATOM     43  CD2 LEU     5      62.651  40.192  53.390  1.00  0.00     0.000 C 
ATOM     44  CD1 LEU     5      62.963  39.414  51.035  1.00  0.00     0.000 C 
ENDBRANCH  41  42
ENDBRANCH  40  41
BRANCH  40  45
ATOM     45  C   LEU     5      61.805  43.295  49.655  1.00  0.00     0.251 C 
ATOM     46  O   LEU     5      60.873  43.724  48.978  1.00  0.00    -0.271 OA
ATOM     47  N   LEU     6      63.072  43.319  49.245  1.00  0.00    -0.338 N 
ATOM     48  H   LEU     6      63.805  43.019  49.857  1.00 99.99     0.164 HD
BRANCH  47  49
ATOM     49  CA  LEU     6      63.522  43.835  47.933  1.00  0.00     0.159 C 
BRANCH  49  50
ATOM     50  C   LEU     6      64.245  42.789  47.066  1.00  0.00     0.251 C 
ATOM     51  N   GLU     7      64.757  41.749  47.725  1.00  0.00    -0.336 N 
ATOM     52  H   GLU     7      64.632  41.657  48.716  1.00 99.99     0.164 HD
ATOM     53  O   LEU     6      64.404  42.973  45.863  1.00  0.00    -0.271 OA
BRANCH  51  54
ATOM     54  CA  GLU     7      65.501  40.631  47.100  1.00  0.00     0.169 C 
BRANCH  54  55
ATOM     55  C   GLU     7      64.938  39.281  47.593  1.00  0.00     0.206 C 
ATOM     56  O   GLU     7      63.701  39.115  47.555  1.00 99.99    -0.646 OA
ATOM     57  OXT GLU     7      65.771  38.473  48.065  1.00 99.99    -0.646 OA
ENDBRANCH  54  55
BRANCH  54  58
ATOM     58  CB  GLU     7      66.993  40.728  47.468  1.00  0.00     0.044 C 
BRANCH  58  59
ATOM     59  CG  GLU     7      67.769  41.773  46.650  1.00  0.00     0.100 C 
BRANCH  59  60
ATOM     60  CD  GLU     7      67.853  43.170  47.285  1.00  0.00     0.185 C 
ATOM     61  OE1 GLU     7      67.492  43.308  48.477  1.00  0.00    -0.647 OA
ATOM     62  OE2 GLU     7      68.202  44.104  46.531  1.00  0.00    -0.647 OA
ENDBRANCH  59  60
ENDBRANCH  58  59
ENDBRANCH  54  58
ENDBRANCH  51  54
ENDBRANCH  49  50
BRANCH  49  63
ATOM     63  CB  LEU     6      64.466  45.029  48.144  1.00  0.00     0.032 C 
BRANCH  63  64
ATOM     64  CG  LEU     6      64.289  45.757  49.482  1.00  0.00     0.002 C 
ATOM     65  CD2 LEU     6      63.344  46.955  49.345  1.00  0.00     0.000 C 
ATOM     66  CD1 LEU     6      65.652  46.236  49.982  1.00  0.00     0.000 C 
ENDBRANCH  63  64
ENDBRANCH  49  63
ENDBRANCH  47  49
ENDBRANCH  40  45
ENDBRANCH  38  40
ENDBRANCH  32  36
ENDBRANCH  30  32
ENDBRANCH  23  28
ENDBRANCH  20  23
ENDBRANCH  14  19
ENDBRANCH  12  14
ENDBRANCH   5  10
ENDBRANCH   1   5
TORSDOF 28
ENDMDL
MODEL 6
REMARK VINA RESULT:      -5.1      2.116      7.583
REMARK  28 active torsions:
REMARK  status: ('A' for Active; 'I' for Inactive)
REMARK    1  A    between atoms: N_1  and  CA_2 
REMARK    2  A    between atoms: CA_2  and  CB_5 
REMARK    3  A    between atoms: CA_2  and  C_3 
REMARK       I    between atoms: C_3  and  N_12 
REMARK    4  A    between atoms: CB_5  and  CG_6 
REMARK    5  A    between atoms: N_12  and  CA_13 
REMARK    6  A    between atoms: CA_13  and  CB_16 
REMARK    7  A    between atoms: CA_13  and  C_14 
REMARK       I    between atoms: C_14  and  N_21 
REMARK    8  A    between atoms: CB_16  and  CG_17 
REMARK    9  A    between atoms: N_21  and  CA_22 
REMARK   10  A    between atoms: CA_22  and  CB_25 
REMARK   11  A    between atoms: CA_22  and  C_23 
REMARK       I    between atoms: C_23  and  N_30 
REMARK   12  A    between atoms: CB_25  and  CG_26 
REMARK   13  A    between atoms: N_30  and  CA_31 
REMARK   14  A    between atoms: CA_31  and  CB_34 
REMARK   15  A    between atoms: CA_31  and  C_32 
REMARK       I    between atoms: C_32  and  N_38 
REMARK   16  A    between atoms: N_38  and  CA_39 
REMARK   17  A    between atoms: CA_39  and  CB_42 
REMARK   18  A    between atoms: CA_39  and  C_40 
REMARK       I    between atoms: C_40  and  N_47 
REMARK   19  A    between atoms: CB_42  and  CG_43 
REMARK   20  A    between atoms: N_47  and  CA_48 
REMARK   21  A    between atoms: CA_48  and  C_49 
REMARK   22  A    between atoms: CA_48  and  CB_51 
REMARK       I    between atoms: C_49  and  N_56 
REMARK   23  A    between atoms: CB_51  and  CG_52 
REMARK   24  A    between atoms: N_56  and  CA_57 
REMARK   25  A    between atoms: CA_57  and  C_58 
REMARK   26  A    between atoms: CA_57  and  CB_60 
REMARK   27  A    between atoms: CB_60  and  CG_61 
REMARK   28  A    between atoms: CG_61  and  CD_62 
ROOT
ATOM      1  N   LEU     1      62.246  41.901  43.011  1.00  0.00    -0.058 N 
ATOM      2  H1  LEU     1      62.829  41.879  42.198  1.00 99.99     0.276 HD
ATOM      3  H2  LEU     1      61.315  42.078  42.737  1.00 99.99     0.276 HD
ATOM      4  H3  LEU     1      62.499  42.698  43.560  1.00 99.99     0.276 HD
ENDROOT
BRANCH   1   5
ATOM      5  CA  LEU     1      62.380  40.637  43.782  1.00  0.00     0.255 C 
BRANCH   5   6
ATOM      6  CB  LEU     1      63.774  40.470  44.409  1.00  0.00     0.040 C 
BRANCH   6   7
ATOM      7  CG  LEU     1      64.171  39.013  44.688  1.00  0.00     0.002 C 
ATOM      8  CD1 LEU     1      65.207  38.564  43.655  1.00  0.00     0.000 C 
ATOM      9  CD2 LEU     1      64.753  38.838  46.096  1.00  0.00     0.000 C 
ENDBRANCH   6   7
ENDBRANCH   5   6
BRANCH   5  10
ATOM     10  C   LEU     1      61.314  40.339  44.861  1.00  0.00     0.259 C 
ATOM     11  O   LEU     1      60.250  39.820  44.525  1.00  0.00    -0.271 OA
ATOM     12  N   LEU     2      61.536  40.783  46.104  1.00  0.00    -0.338 N 
ATOM     13  H   LEU     2      62.411  41.184  46.373  1.00 99.99     0.164 HD
BRANCH  12  14
ATOM     14  CA  LEU     2      60.556  40.606  47.205  1.00  0.00     0.159 C 
BRANCH  14  15
ATOM     15  CB  LEU     2      61.189  39.825  48.366  1.00  0.00     0.032 C 
BRANCH  15  16
ATOM     16  CG  LEU     2      60.629  38.406  48.506  1.00  0.00     0.002 C 
ATOM     17  CD2 LEU     2      61.342  37.433  47.559  1.00  0.00     0.000 C 
ATOM     18  CD1 LEU     2      59.130  38.409  48.199  1.00  0.00     0.000 C 
ENDBRANCH  15  16
ENDBRANCH  14  15
BRANCH  14  19
ATOM     19  C   LEU     2      60.002  41.956  47.691  1.00  0.00     0.251 C 
ATOM     20  N   ASP     3      59.614  42.746  46.696  1.00  0.00    -0.337 N 
ATOM     21  H   ASP     3      59.956  42.552  45.778  1.00 99.99     0.164 HD
ATOM     22  O   LEU     2      59.746  42.159  48.871  1.00  0.00    -0.271 OA
BRANCH  20  23
ATOM     23  CA  ASP     3      58.729  43.927  46.760  1.00  0.00     0.170 C 
BRANCH  23  24
ATOM     24  CB  ASP     3      58.558  44.436  45.312  1.00  0.00     0.129 C 
BRANCH  24  25
ATOM     25  CG  ASP     3      58.973  43.415  44.239  1.00  0.00     0.188 C 
ATOM     26  OD2 ASP     3      59.908  43.742  43.483  1.00  0.00    -0.647 OA
ATOM     27  OD1 ASP     3      58.200  42.450  44.028  1.00  0.00    -0.647 OA
ENDBRANCH  24  25
ENDBRANCH  23  24
BRANCH  23  28
ATOM     28  C   ASP     3      57.406  43.698  47.533  1.00  0.00     0.251 C 
ATOM     29  O   ASP     3      56.829  44.667  48.019  1.00  0.00    -0.271 OA
ATOM     30  N   VAL     4      57.108  42.432  47.835  1.00  0.00    -0.338 N 
ATOM     31  H   VAL     4      57.636  41.678  47.448  1.00 99.99     0.164 HD
BRANCH  30  32
ATOM     32  CA  VAL     4      55.934  41.942  48.605  1.00  0.00     0.159 C 
BRANCH  32  33
ATOM     33  CB  VAL     4      55.553  40.533  48.072  1.00  0.00     0.029 C 
ATOM     34  CG1 VAL     4      54.080  40.162  48.281  1.00  0.00     0.002 C 
ATOM     35  CG2 VAL     4      55.827  40.376  46.572  1.00  0.00     0.002 C 
ENDBRANCH  32  33
BRANCH  32  36
ATOM     36  C   VAL     4      56.110  41.961  50.151  1.00  0.00     0.251 C 
ATOM     37  O   VAL     4      55.158  42.218  50.883  1.00  0.00    -0.271 OA
ATOM     38  N   LEU     5      57.308  41.645  50.642  1.00  0.00    -0.338 N 
ATOM     39  H   LEU     5      58.037  41.282  50.062  1.00 99.99     0.164 HD
BRANCH  38  40
ATOM     40  CA  LEU     5      57.663  41.708  52.079  1.00  0.00     0.159 C 
BRANCH  40  41
ATOM     41  CB  LEU     5      57.630  40.296  52.677  1.00  0.00     0.032 C 
BRANCH  41  42
ATOM     42  CG  LEU     5      57.804  39.167  51.654  1.00  0.00     0.002 C 
ATOM     43  CD2 LEU     5      56.631  38.184  51.704  1.00  0.00     0.000 C 
ATOM     44  CD1 LEU     5      59.107  38.423  51.951  1.00  0.00     0.000 C 
ENDBRANCH  41  42
ENDBRANCH  40  41
BRANCH  40  45
ATOM     45  C   LEU     5      59.037  42.339  52.386  1.00  0.00     0.251 C 
ATOM     46  O   LEU     5      59.137  43.236  53.220  1.00  0.00    -0.271 OA
ATOM     47  N   LEU     6      60.087  41.805  51.764  1.00  0.00    -0.338 N 
ATOM     48  H   LEU     6      59.964  41.032  51.140  1.00 99.99     0.164 HD
BRANCH  47  49
ATOM     49  CA  LEU     6      61.491  42.225  51.972  1.00  0.00     0.159 C 
BRANCH  49  50
ATOM     50  C   LEU     6      61.962  43.327  51.006  1.00  0.00     0.251 C 
ATOM     51  N   GLU     7      62.590  42.903  49.909  1.00  0.00    -0.336 N 
ATOM     52  H   GLU     7      62.702  41.922  49.729  1.00 99.99     0.164 HD
ATOM     53  O   LEU     6      61.835  44.513  51.298  1.00  0.00    -0.271 OA
BRANCH  51  54
ATOM     54  CA  GLU     7      63.136  43.782  48.850  1.00  0.00     0.169 C 
BRANCH  54  55
ATOM     55  C   GLU     7      63.389  42.966  47.565  1.00  0.00     0.206 C 
ATOM     56  O   GLU     7      64.149  41.978  47.640  1.00 99.99    -0.646 OA
ATOM     57  OXT GLU     7      62.860  43.405  46.517  1.00 99.99    -0.646 OA
ENDBRANCH  54  55
BRANCH  54  58
ATOM     58  CB  GLU     7      64.459  44.410  49.326  1.00  0.00     0.044 C 
BRANCH  58  59
ATOM     59  CG  GLU     7      65.246  45.120  48.212  1.00  0.00     0.100 C 
BRANCH  59  60
ATOM     60  CD  GLU     7      66.660  44.572  47.959  1.00  0.00     0.185 C 
ATOM     61  OE1 GLU     7      67.237  44.879  46.889  1.00  0.00    -0.647 OA
ATOM     62  OE2 GLU     7      67.110  43.778  48.812  1.00  0.00    -0.647 OA
ENDBRANCH  59  60
ENDBRANCH  58  59
ENDBRANCH  54  58
ENDBRANCH  51  54
ENDBRANCH  49  50
BRANCH  49  63
ATOM     63  CB  LEU     6      62.421  41.012  51.816  1.00  0.00     0.032 C 
BRANCH  63  64
ATOM     64  CG  LEU     6      63.085  40.543  53.116  1.00  0.00     0.002 C 
ATOM     65  CD2 LEU     6      62.731  39.087  53.432  1.00  0.00     0.000 C 
ATOM     66  CD1 LEU     6      62.631  41.441  54.269  1.00  0.00     0.000 C 
ENDBRANCH  63  64
ENDBRANCH  49  63
ENDBRANCH  47  49
ENDBRANCH  40  45
ENDBRANCH  38  40
ENDBRANCH  32  36
ENDBRANCH  30  32
ENDBRANCH  23  28
ENDBRANCH  20  23
ENDBRANCH  14  19
ENDBRANCH  12  14
ENDBRANCH   5  10
ENDBRANCH   1   5
TORSDOF 28
ENDMDL
MODEL 7
REMARK VINA RESULT:      -5.1      2.522      5.083
REMARK  28 active torsions:
REMARK  status: ('A' for Active; 'I' for Inactive)
REMARK    1  A    between atoms: N_1  and  CA_2 
REMARK    2  A    between atoms: CA_2  and  CB_5 
REMARK    3  A    between atoms: CA_2  and  C_3 
REMARK       I    between atoms: C_3  and  N_12 
REMARK    4  A    between atoms: CB_5  and  CG_6 
REMARK    5  A    between atoms: N_12  and  CA_13 
REMARK    6  A    between atoms: CA_13  and  CB_16 
REMARK    7  A    between atoms: CA_13  and  C_14 
REMARK       I    between atoms: C_14  and  N_21 
REMARK    8  A    between atoms: CB_16  and  CG_17 
REMARK    9  A    between atoms: N_21  and  CA_22 
REMARK   10  A    between atoms: CA_22  and  CB_25 
REMARK   11  A    between atoms: CA_22  and  C_23 
REMARK       I    between atoms: C_23  and  N_30 
REMARK   12  A    between atoms: CB_25  and  CG_26 
REMARK   13  A    between atoms: N_30  and  CA_31 
REMARK   14  A    between atoms: CA_31  and  CB_34 
REMARK   15  A    between atoms: CA_31  and  C_32 
REMARK       I    between atoms: C_32  and  N_38 
REMARK   16  A    between atoms: N_38  and  CA_39 
REMARK   17  A    between atoms: CA_39  and  CB_42 
REMARK   18  A    between atoms: CA_39  and  C_40 
REMARK       I    between atoms: C_40  and  N_47 
REMARK   19  A    between atoms: CB_42  and  CG_43 
REMARK   20  A    between atoms: N_47  and  CA_48 
REMARK   21  A    between atoms: CA_48  and  C_49 
REMARK   22  A    between atoms: CA_48  and  CB_51 
REMARK       I    between atoms: C_49  and  N_56 
REMARK   23  A    between atoms: CB_51  and  CG_52 
REMARK   24  A    between atoms: N_56  and  CA_57 
REMARK   25  A    between atoms: CA_57  and  C_58 
REMARK   26  A    between atoms: CA_57  and  CB_60 
REMARK   27  A    between atoms: CB_60  and  CG_61 
REMARK   28  A    between atoms: CG_61  and  CD_62 
ROOT
ATOM      1  N   LEU     1      59.405  43.707  47.889  1.00  0.00    -0.058 N 
ATOM      2  H1  LEU     1      60.203  43.247  47.497  1.00 99.99     0.276 HD
ATOM      3  H2  LEU     1      59.476  44.676  47.721  1.00 99.99     0.276 HD
ATOM      4  H3  LEU     1      59.451  43.623  48.885  1.00 99.99     0.276 HD
ENDROOT
BRANCH   1   5
ATOM      5  CA  LEU     1      58.150  43.125  47.346  1.00  0.00     0.255 C 
BRANCH   5   6
ATOM      6  CB  LEU     1      58.271  41.620  47.053  1.00  0.00     0.040 C 
BRANCH   6   7
ATOM      7  CG  LEU     1      58.059  41.245  45.579  1.00  0.00     0.002 C 
ATOM      8  CD1 LEU     1      56.628  40.739  45.386  1.00  0.00     0.000 C 
ATOM      9  CD2 LEU     1      58.303  42.437  44.645  1.00  0.00     0.000 C 
ENDBRANCH   6   7
ENDBRANCH   5   6
BRANCH   5  10
ATOM     10  C   LEU     1      56.845  43.371  48.137  1.00  0.00     0.259 C 
ATOM     11  O   LEU     1      56.317  44.482  48.093  1.00  0.00    -0.271 OA
ATOM     12  N   LEU     2      56.412  42.402  48.952  1.00  0.00    -0.338 N 
ATOM     13  H   LEU     2      56.833  41.496  48.966  1.00 99.99     0.164 HD
BRANCH  12  14
ATOM     14  CA  LEU     2      55.205  42.550  49.804  1.00  0.00     0.159 C 
BRANCH  14  15
ATOM     15  CB  LEU     2      54.329  41.292  49.718  1.00  0.00     0.032 C 
BRANCH  15  16
ATOM     16  CG  LEU     2      54.829  40.287  48.675  1.00  0.00     0.002 C 
ATOM     17  CD2 LEU     2      53.801  40.094  47.553  1.00  0.00     0.000 C 
ATOM     18  CD1 LEU     2      55.111  38.943  49.347  1.00  0.00     0.000 C 
ENDBRANCH  15  16
ENDBRANCH  14  15
BRANCH  14  19
ATOM     19  C   LEU     2      55.577  42.859  51.264  1.00  0.00     0.251 C 
ATOM     20  N   ASP     3      56.049  41.801  51.913  1.00  0.00    -0.337 N 
ATOM     21  H   ASP     3      55.863  40.894  51.538  1.00 99.99     0.164 HD
ATOM     22  O   LEU     2      55.639  44.008  51.682  1.00  0.00    -0.271 OA
BRANCH  20  23
ATOM     23  CA  ASP     3      56.823  41.772  53.171  1.00  0.00     0.170 C 
BRANCH  23  24
ATOM     24  CB  ASP     3      56.507  40.427  53.860  1.00  0.00     0.129 C 
BRANCH  24  25
ATOM     25  CG  ASP     3      56.067  39.317  52.889  1.00  0.00     0.188 C 
ATOM     26  OD2 ASP     3      54.859  39.012  52.895  1.00  0.00    -0.647 OA
ATOM     27  OD1 ASP     3      56.966  38.629  52.350  1.00  0.00    -0.647 OA
ENDBRANCH  24  25
ENDBRANCH  23  24
BRANCH  23  28
ATOM     28  C   ASP     3      58.331  42.083  53.005  1.00  0.00     0.251 C 
ATOM     29  O   ASP     3      58.716  43.242  53.139  1.00  0.00    -0.271 OA
ATOM     30  N   VAL     4      59.083  41.111  52.481  1.00  0.00    -0.338 N 
ATOM     31  H   VAL     4      58.710  40.193  52.350  1.00 99.99     0.164 HD
BRANCH  30  32
ATOM     32  CA  VAL     4      60.537  41.162  52.172  1.00  0.00     0.159 C 
BRANCH  32  33
ATOM     33  CB  VAL     4      61.295  40.343  53.252  1.00  0.00     0.029 C 
ATOM     34  CG1 VAL     4      62.079  41.200  54.252  1.00  0.00     0.002 C 
ATOM     35  CG2 VAL     4      60.360  39.459  54.086  1.00  0.00     0.002 C 
ENDBRANCH  32  33
BRANCH  32  36
ATOM     36  C   VAL     4      60.915  40.728  50.727  1.00  0.00     0.251 C 
ATOM     37  O   VAL     4      60.531  41.381  49.760  1.00  0.00    -0.271 OA
ATOM     38  N   LEU     5      61.701  39.661  50.586  1.00  0.00    -0.338 N 
ATOM     39  H   LEU     5      62.143  39.224  51.369  1.00 99.99     0.164 HD
BRANCH  38  40
ATOM     40  CA  LEU     5      62.074  39.066  49.281  1.00  0.00     0.159 C 
BRANCH  40  41
ATOM     41  CB  LEU     5      60.808  38.599  48.551  1.00  0.00     0.032 C 
BRANCH  41  42
ATOM     42  CG  LEU     5      59.999  37.534  49.299  1.00  0.00     0.002 C 
ATOM     43  CD2 LEU     5      60.213  36.143  48.692  1.00  0.00     0.000 C 
ATOM     44  CD1 LEU     5      58.515  37.897  49.230  1.00  0.00     0.000 C 
ENDBRANCH  41  42
ENDBRANCH  40  41
BRANCH  40  45
ATOM     45  C   LEU     5      62.867  39.999  48.341  1.00  0.00     0.251 C 
ATOM     46  O   LEU     5      64.079  40.138  48.482  1.00  0.00    -0.271 OA
ATOM     47  N   LEU     6      62.181  40.559  47.345  1.00  0.00    -0.338 N 
ATOM     48  H   LEU     6      61.206  40.364  47.232  1.00 99.99     0.164 HD
BRANCH  47  49
ATOM     49  CA  LEU     6      62.772  41.429  46.304  1.00  0.00     0.159 C 
BRANCH  49  50
ATOM     50  C   LEU     6      63.042  42.869  46.774  1.00  0.00     0.251 C 
ATOM     51  N   GLU     7      64.294  43.125  47.156  1.00  0.00    -0.336 N 
ATOM     52  H   GLU     7      65.003  42.419  47.095  1.00 99.99     0.164 HD
ATOM     53  O   LEU     6      62.126  43.681  46.867  1.00  0.00    -0.271 OA
BRANCH  51  54
ATOM     54  CA  GLU     7      64.779  44.433  47.653  1.00  0.00     0.169 C 
BRANCH  54  55
ATOM     55  C   GLU     7      66.109  44.801  46.961  1.00  0.00     0.206 C 
ATOM     56  O   GLU     7      66.913  45.523  47.586  1.00 99.99    -0.646 OA
ATOM     57  OXT GLU     7      66.250  44.398  45.783  1.00 99.99    -0.646 OA
ENDBRANCH  54  55
BRANCH  54  58
ATOM     58  CB  GLU     7      64.997  44.363  49.175  1.00  0.00     0.044 C 
BRANCH  58  59
ATOM     59  CG  GLU     7      64.252  45.454  49.962  1.00  0.00     0.100 C 
BRANCH  59  60
ATOM     60  CD  GLU     7      62.719  45.392  49.875  1.00  0.00     0.185 C 
ATOM     61  OE1 GLU     7      62.093  46.443  49.604  1.00  0.00    -0.647 OA
ATOM     62  OE2 GLU     7      62.189  44.299  50.170  1.00  0.00    -0.647 OA
ENDBRANCH  59  60
ENDBRANCH  58  59
ENDBRANCH  54  58
ENDBRANCH  51  54
ENDBRANCH  49  50
BRANCH  49  63
ATOM     63  CB  LEU     6      61.837  41.483  45.085  1.00  0.00     0.032 C 
BRANCH  63  64
ATOM     64  CG  LEU     6      62.531  41.272  43.735  1.00  0.00     0.002 C 
ATOM     65  CD2 LEU     6      63.652  40.232  43.838  1.00  0.00     0.000 C 
ATOM     66  CD1 LEU     6      63.112  42.602  43.251  1.00  0.00     0.000 C 
ENDBRANCH  63  64
ENDBRANCH  49  63
ENDBRANCH  47  49
ENDBRANCH  40  45
ENDBRANCH  38  40
ENDBRANCH  32  36
ENDBRANCH  30  32
ENDBRANCH  23  28
ENDBRANCH  20  23
ENDBRANCH  14  19
ENDBRANCH  12  14
ENDBRANCH   5  10
ENDBRANCH   1   5
TORSDOF 28
ENDMDL
MODEL 8
REMARK VINA RESULT:      -5.0      2.572      5.816
REMARK  28 active torsions:
REMARK  status: ('A' for Active; 'I' for Inactive)
REMARK    1  A    between atoms: N_1  and  CA_2 
REMARK    2  A    between atoms: CA_2  and  CB_5 
REMARK    3  A    between atoms: CA_2  and  C_3 
REMARK       I    between atoms: C_3  and  N_12 
REMARK    4  A    between atoms: CB_5  and  CG_6 
REMARK    5  A    between atoms: N_12  and  CA_13 
REMARK    6  A    between atoms: CA_13  and  CB_16 
REMARK    7  A    between atoms: CA_13  and  C_14 
REMARK       I    between atoms: C_14  and  N_21 
REMARK    8  A    between atoms: CB_16  and  CG_17 
REMARK    9  A    between atoms: N_21  and  CA_22 
REMARK   10  A    between atoms: CA_22  and  CB_25 
REMARK   11  A    between atoms: CA_22  and  C_23 
REMARK       I    between atoms: C_23  and  N_30 
REMARK   12  A    between atoms: CB_25  and  CG_26 
REMARK   13  A    between atoms: N_30  and  CA_31 
REMARK   14  A    between atoms: CA_31  and  CB_34 
REMARK   15  A    between atoms: CA_31  and  C_32 
REMARK       I    between atoms: C_32  and  N_38 
REMARK   16  A    between atoms: N_38  and  CA_39 
REMARK   17  A    between atoms: CA_39  and  CB_42 
REMARK   18  A    between atoms: CA_39  and  C_40 
REMARK       I    between atoms: C_40  and  N_47 
REMARK   19  A    between atoms: CB_42  and  CG_43 
REMARK   20  A    between atoms: N_47  and  CA_48 
REMARK   21  A    between atoms: CA_48  and  C_49 
REMARK   22  A    between atoms: CA_48  and  CB_51 
REMARK       I    between atoms: C_49  and  N_56 
REMARK   23  A    between atoms: CB_51  and  CG_52 
REMARK   24  A    between atoms: N_56  and  CA_57 
REMARK   25  A    between atoms: CA_57  and  C_58 
REMARK   26  A    between atoms: CA_57  and  CB_60 
REMARK   27  A    between atoms: CB_60  and  CG_61 
REMARK   28  A    between atoms: CG_61  and  CD_62 
ROOT
ATOM      1  N   LEU     1      56.376  37.799  49.240  1.00  0.00    -0.058 N 
ATOM      2  H1  LEU     1      56.209  36.928  49.703  1.00 99.99     0.276 HD
ATOM      3  H2  LEU     1      55.728  38.468  49.564  1.00 99.99     0.276 HD
ATOM      4  H3  LEU     1      56.155  37.688  48.271  1.00 99.99     0.276 HD
ENDROOT
BRANCH   1   5
ATOM      5  CA  LEU     1      57.785  38.230  49.436  1.00  0.00     0.255 C 
BRANCH   5   6
ATOM      6  CB  LEU     1      58.793  37.294  48.749  1.00  0.00     0.040 C 
BRANCH   6   7
ATOM      7  CG  LEU     1      60.228  37.839  48.698  1.00  0.00     0.002 C 
ATOM      8  CD1 LEU     1      61.043  37.227  49.839  1.00  0.00     0.000 C 
ATOM      9  CD2 LEU     1      60.913  37.523  47.362  1.00  0.00     0.000 C 
ENDBRANCH   6   7
ENDBRANCH   5   6
BRANCH   5  10
ATOM     10  C   LEU     1      58.144  39.690  49.079  1.00  0.00     0.259 C 
ATOM     11  O   LEU     1      58.604  40.425  49.952  1.00  0.00    -0.271 OA
ATOM     12  N   LEU     2      57.811  40.140  47.863  1.00  0.00    -0.338 N 
ATOM     13  H   LEU     2      57.458  39.532  47.153  1.00 99.99     0.164 HD
BRANCH  12  14
ATOM     14  CA  LEU     2      58.053  41.541  47.432  1.00  0.00     0.159 C 
BRANCH  14  15
ATOM     15  CB  LEU     2      58.345  41.596  45.926  1.00  0.00     0.032 C 
BRANCH  15  16
ATOM     16  CG  LEU     2      58.169  40.240  45.234  1.00  0.00     0.002 C 
ATOM     17  CD2 LEU     2      59.485  39.762  44.608  1.00  0.00     0.000 C 
ATOM     18  CD1 LEU     2      57.098  40.350  44.147  1.00  0.00     0.000 C 
ENDBRANCH  15  16
ENDBRANCH  14  15
BRANCH  14  19
ATOM     19  C   LEU     2      56.872  42.456  47.795  1.00  0.00     0.251 C 
ATOM     20  N   ASP     3      56.158  42.000  48.819  1.00  0.00    -0.337 N 
ATOM     21  H   ASP     3      56.245  41.036  49.065  1.00 99.99     0.164 HD
ATOM     22  O   LEU     2      56.764  43.583  47.328  1.00  0.00    -0.271 OA
BRANCH  20  23
ATOM     23  CA  ASP     3      55.201  42.741  49.666  1.00  0.00     0.170 C 
BRANCH  23  24
ATOM     24  CB  ASP     3      53.817  42.092  49.450  1.00  0.00     0.129 C 
BRANCH  24  25
ATOM     25  CG  ASP     3      53.877  40.691  48.817  1.00  0.00     0.188 C 
ATOM     26  OD2 ASP     3      54.295  39.766  49.540  1.00  0.00    -0.647 OA
ATOM     27  OD1 ASP     3      53.750  40.611  47.573  1.00  0.00    -0.647 OA
ENDBRANCH  24  25
ENDBRANCH  23  24
BRANCH  23  28
ATOM     28  C   ASP     3      55.632  42.884  51.147  1.00  0.00     0.251 C 
ATOM     29  O   ASP     3      55.435  43.952  51.722  1.00  0.00    -0.271 OA
ATOM     30  N   VAL     4      56.417  41.918  51.633  1.00  0.00    -0.338 N 
ATOM     31  H   VAL     4      56.582  41.085  51.107  1.00 99.99     0.164 HD
BRANCH  30  32
ATOM     32  CA  VAL     4      57.007  41.835  52.995  1.00  0.00     0.159 C 
BRANCH  32  33
ATOM     33  CB  VAL     4      56.709  40.423  53.572  1.00  0.00     0.029 C 
ATOM     34  CG1 VAL     4      55.763  40.428  54.778  1.00  0.00     0.002 C 
ATOM     35  CG2 VAL     4      56.080  39.484  52.536  1.00  0.00     0.002 C 
ENDBRANCH  32  33
BRANCH  32  36
ATOM     36  C   VAL     4      58.517  42.201  53.079  1.00  0.00     0.251 C 
ATOM     37  O   VAL     4      58.869  43.296  53.508  1.00  0.00    -0.271 OA
ATOM     38  N   LEU     5      59.400  41.272  52.714  1.00  0.00    -0.338 N 
ATOM     39  H   LEU     5      59.126  40.331  52.517  1.00 99.99     0.164 HD
BRANCH  38  40
ATOM     40  CA  LEU     5      60.863  41.495  52.646  1.00  0.00     0.159 C 
BRANCH  40  41
ATOM     41  CB  LEU     5      61.534  40.289  51.977  1.00  0.00     0.032 C 
BRANCH  41  42
ATOM     42  CG  LEU     5      62.409  39.446  52.912  1.00  0.00     0.002 C 
ATOM     43  CD2 LEU     5      61.563  38.466  53.731  1.00  0.00     0.000 C 
ATOM     44  CD1 LEU     5      63.168  40.378  53.857  1.00  0.00     0.000 C 
ENDBRANCH  41  42
ENDBRANCH  40  41
BRANCH  40  45
ATOM     45  C   LEU     5      61.296  42.775  51.899  1.00  0.00     0.251 C 
ATOM     46  O   LEU     5      61.475  43.823  52.515  1.00  0.00    -0.271 OA
ATOM     47  N   LEU     6      61.534  42.648  50.595  1.00  0.00    -0.338 N 
ATOM     48  H   LEU     6      61.436  41.757  50.149  1.00 99.99     0.164 HD
BRANCH  47  49
ATOM     49  CA  LEU     6      62.017  43.738  49.719  1.00  0.00     0.159 C 
BRANCH  49  50
ATOM     50  C   LEU     6      61.796  43.478  48.219  1.00  0.00     0.251 C 
ATOM     51  N   GLU     7      62.877  43.105  47.533  1.00  0.00    -0.336 N 
ATOM     52  H   GLU     7      63.757  42.973  47.995  1.00 99.99     0.164 HD
ATOM     53  O   LEU     6      60.705  43.696  47.698  1.00  0.00    -0.271 OA
BRANCH  51  54
ATOM     54  CA  GLU     7      62.903  42.812  46.081  1.00  0.00     0.169 C 
BRANCH  54  55
ATOM     55  C   GLU     7      62.687  41.303  45.843  1.00  0.00     0.206 C 
ATOM     56  O   GLU     7      62.873  40.861  44.690  1.00 99.99    -0.646 OA
ATOM     57  OXT GLU     7      62.270  40.642  46.822  1.00 99.99    -0.646 OA
ENDBRANCH  54  55
BRANCH  54  58
ATOM     58  CB  GLU     7      64.259  43.235  45.488  1.00  0.00     0.044 C 
BRANCH  58  59
ATOM     59  CG  GLU     7      65.472  42.721  46.281  1.00  0.00     0.100 C 
BRANCH  59  60
ATOM     60  CD  GLU     7      66.561  43.768  46.564  1.00  0.00     0.185 C 
ATOM     61  OE1 GLU     7      66.420  44.920  46.091  1.00  0.00    -0.647 OA
ATOM     62  OE2 GLU     7      67.570  43.369  47.184  1.00  0.00    -0.647 OA
ENDBRANCH  59  60
ENDBRANCH  58  59
ENDBRANCH  54  58
ENDBRANCH  51  54
ENDBRANCH  49  50
BRANCH  49  63
ATOM     63  CB  LEU     6      63.518  43.965  49.957  1.00  0.00     0.032 C 
BRANCH  63  64
ATOM     64  CG  LEU     6      63.917  45.427  50.187  1.00  0.00     0.002 C 
ATOM     65  CD2 LEU     6      62.689  46.311  50.427  1.00  0.00     0.000 C 
ATOM     66  CD1 LEU     6      64.685  45.940  48.968  1.00  0.00     0.000 C 
ENDBRANCH  63  64
ENDBRANCH  49  63
ENDBRANCH  47  49
ENDBRANCH  40  45
ENDBRANCH  38  40
ENDBRANCH  32  36
ENDBRANCH  30  32
ENDBRANCH  23  28
ENDBRANCH  20  23
ENDBRANCH  14  19
ENDBRANCH  12  14
ENDBRANCH   5  10
ENDBRANCH   1   5
TORSDOF 28
ENDMDL
MODEL 9
REMARK VINA RESULT:      -5.0      2.091      8.105
REMARK  28 active torsions:
REMARK  status: ('A' for Active; 'I' for Inactive)
REMARK    1  A    between atoms: N_1  and  CA_2 
REMARK    2  A    between atoms: CA_2  and  CB_5 
REMARK    3  A    between atoms: CA_2  and  C_3 
REMARK       I    between atoms: C_3  and  N_12 
REMARK    4  A    between atoms: CB_5  and  CG_6 
REMARK    5  A    between atoms: N_12  and  CA_13 
REMARK    6  A    between atoms: CA_13  and  CB_16 
REMARK    7  A    between atoms: CA_13  and  C_14 
REMARK       I    between atoms: C_14  and  N_21 
REMARK    8  A    between atoms: CB_16  and  CG_17 
REMARK    9  A    between atoms: N_21  and  CA_22 
REMARK   10  A    between atoms: CA_22  and  CB_25 
REMARK   11  A    between atoms: CA_22  and  C_23 
REMARK       I    between atoms: C_23  and  N_30 
REMARK   12  A    between atoms: CB_25  and  CG_26 
REMARK   13  A    between atoms: N_30  and  CA_31 
REMARK   14  A    between atoms: CA_31  and  CB_34 
REMARK   15  A    between atoms: CA_31  and  C_32 
REMARK       I    between atoms: C_32  and  N_38 
REMARK   16  A    between atoms: N_38  and  CA_39 
REMARK   17  A    between atoms: CA_39  and  CB_42 
REMARK   18  A    between atoms: CA_39  and  C_40 
REMARK       I    between atoms: C_40  and  N_47 
REMARK   19  A    between atoms: CB_42  and  CG_43 
REMARK   20  A    between atoms: N_47  and  CA_48 
REMARK   21  A    between atoms: CA_48  and  C_49 
REMARK   22  A    between atoms: CA_48  and  CB_51 
REMARK       I    between atoms: C_49  and  N_56 
REMARK   23  A    between atoms: CB_51  and  CG_52 
REMARK   24  A    between atoms: N_56  and  CA_57 
REMARK   25  A    between atoms: CA_57  and  C_58 
REMARK   26  A    between atoms: CA_57  and  CB_60 
REMARK   27  A    between atoms: CB_60  and  CG_61 
REMARK   28  A    between atoms: CG_61  and  CD_62 
ROOT
ATOM      1  N   LEU     1      62.847  40.992  45.073  1.00  0.00    -0.058 N 
ATOM      2  H1  LEU     1      62.341  40.291  45.577  1.00 99.99     0.276 HD
ATOM      3  H2  LEU     1      62.207  41.607  44.642  1.00 99.99     0.276 HD
ATOM      4  H3  LEU     1      63.321  40.551  44.310  1.00 99.99     0.276 HD
ENDROOT
BRANCH   1   5
ATOM      5  CA  LEU     1      63.796  41.697  45.974  1.00  0.00     0.255 C 
BRANCH   5   6
ATOM      6  CB  LEU     1      64.506  42.874  45.283  1.00  0.00     0.040 C 
BRANCH   6   7
ATOM      7  CG  LEU     1      65.961  42.586  44.884  1.00  0.00     0.002 C 
ATOM      8  CD1 LEU     1      66.670  41.870  46.035  1.00  0.00     0.000 C 
ATOM      9  CD2 LEU     1      66.046  41.720  43.621  1.00  0.00     0.000 C 
ENDBRANCH   6   7
ENDBRANCH   5   6
BRANCH   5  10
ATOM     10  C   LEU     1      63.263  42.177  47.343  1.00  0.00     0.259 C 
ATOM     11  O   LEU     1      63.884  41.884  48.364  1.00  0.00    -0.271 OA
ATOM     12  N   LEU     2      62.068  42.778  47.376  1.00  0.00    -0.338 N 
ATOM     13  H   LEU     2      61.580  43.031  46.541  1.00 99.99     0.164 HD
BRANCH  12  14
ATOM     14  CA  LEU     2      61.431  43.226  48.641  1.00  0.00     0.159 C 
BRANCH  14  15
ATOM     15  CB  LEU     2      61.893  44.645  49.001  1.00  0.00     0.032 C 
BRANCH  15  16
ATOM     16  CG  LEU     2      62.862  44.673  50.188  1.00  0.00     0.002 C 
ATOM     17  CD2 LEU     2      62.448  43.666  51.267  1.00  0.00     0.000 C 
ATOM     18  CD1 LEU     2      62.901  46.079  50.790  1.00  0.00     0.000 C 
ENDBRANCH  15  16
ENDBRANCH  14  15
BRANCH  14  19
ATOM     19  C   LEU     2      59.897  43.154  48.557  1.00  0.00     0.251 C 
ATOM     20  N   ASP     3      59.404  43.803  47.508  1.00  0.00    -0.337 N 
ATOM     21  H   ASP     3      59.981  44.482  47.057  1.00 99.99     0.164 HD
ATOM     22  O   LEU     2      59.249  42.388  49.260  1.00  0.00    -0.271 OA
BRANCH  20  23
ATOM     23  CA  ASP     3      58.063  43.671  46.900  1.00  0.00     0.170 C 
BRANCH  23  24
ATOM     24  CB  ASP     3      58.072  42.363  46.079  1.00  0.00     0.129 C 
BRANCH  24  25
ATOM     25  CG  ASP     3      59.000  42.403  44.853  1.00  0.00     0.188 C 
ATOM     26  OD2 ASP     3      58.458  42.300  43.735  1.00  0.00    -0.647 OA
ATOM     27  OD1 ASP     3      60.231  42.280  45.054  1.00  0.00    -0.647 OA
ENDBRANCH  24  25
ENDBRANCH  23  24
BRANCH  23  28
ATOM     28  C   ASP     3      56.888  43.807  47.900  1.00  0.00     0.251 C 
ATOM     29  O   ASP     3      56.512  44.931  48.224  1.00  0.00    -0.271 OA
ATOM     30  N   VAL     4      56.522  42.693  48.539  1.00  0.00    -0.338 N 
ATOM     31  H   VAL     4      56.890  41.805  48.267  1.00 99.99     0.164 HD
BRANCH  30  32
ATOM     32  CA  VAL     4      55.464  42.554  49.577  1.00  0.00     0.159 C 
BRANCH  32  33
ATOM     33  CB  VAL     4      54.714  41.215  49.334  1.00  0.00     0.029 C 
ATOM     34  CG1 VAL     4      53.221  41.264  49.678  1.00  0.00     0.002 C 
ATOM     35  CG2 VAL     4      54.804  40.744  47.879  1.00  0.00     0.002 C 
ENDBRANCH  32  33
BRANCH  32  36
ATOM     36  C   VAL     4      55.963  42.696  51.043  1.00  0.00     0.251 C 
ATOM     37  O   VAL     4      55.415  43.478  51.815  1.00  0.00    -0.271 OA
ATOM     38  N   LEU     5      56.965  41.909  51.435  1.00  0.00    -0.338 N 
ATOM     39  H   LEU     5      57.307  41.164  50.862  1.00 99.99     0.164 HD
BRANCH  38  40
ATOM     40  CA  LEU     5      57.615  41.987  52.765  1.00  0.00     0.159 C 
BRANCH  40  41
ATOM     41  CB  LEU     5      56.985  40.950  53.704  1.00  0.00     0.032 C 
BRANCH  41  42
ATOM     42  CG  LEU     5      56.237  39.817  52.991  1.00  0.00     0.002 C 
ATOM     43  CD2 LEU     5      54.747  39.822  53.349  1.00  0.00     0.000 C 
ATOM     44  CD1 LEU     5      56.856  38.480  53.400  1.00  0.00     0.000 C 
ENDBRANCH  41  42
ENDBRANCH  40  41
BRANCH  40  45
ATOM     45  C   LEU     5      59.144  41.777  52.758  1.00  0.00     0.251 C 
ATOM     46  O   LEU     5      59.878  42.531  53.393  1.00  0.00    -0.271 OA
ATOM     47  N   LEU     6      59.593  40.706  52.104  1.00  0.00    -0.338 N 
ATOM     48  H   LEU     6      58.950  40.084  51.656  1.00 99.99     0.164 HD
BRANCH  47  49
ATOM     49  CA  LEU     6      61.014  40.298  52.036  1.00  0.00     0.159 C 
BRANCH  49  50
ATOM     50  C   LEU     6      61.397  39.589  50.725  1.00  0.00     0.251 C 
ATOM     51  N   GLU     7      60.452  38.815  50.191  1.00  0.00    -0.336 N 
ATOM     52  H   GLU     7      59.546  38.746  50.614  1.00 99.99     0.164 HD
ATOM     53  O   LEU     6      62.536  39.678  50.274  1.00  0.00    -0.271 OA
BRANCH  51  54
ATOM     54  CA  GLU     7      60.601  38.033  48.942  1.00  0.00     0.169 C 
BRANCH  54  55
ATOM     55  C   GLU     7      60.655  38.982  47.727  1.00  0.00     0.206 C 
ATOM     56  O   GLU     7      61.723  39.047  47.082  1.00 99.99    -0.646 OA
ATOM     57  OXT GLU     7      59.633  39.676  47.521  1.00 99.99    -0.646 OA
ENDBRANCH  54  55
BRANCH  54  58
ATOM     58  CB  GLU     7      59.410  37.069  48.786  1.00  0.00     0.044 C 
BRANCH  58  59
ATOM     59  CG  GLU     7      58.359  37.193  49.902  1.00  0.00     0.100 C 
BRANCH  59  60
ATOM     60  CD  GLU     7      57.269  38.249  49.660  1.00  0.00     0.185 C 
ATOM     61  OE1 GLU     7      57.494  39.431  50.010  1.00  0.00    -0.647 OA
ATOM     62  OE2 GLU     7      56.183  37.833  49.202  1.00  0.00    -0.647 OA
ENDBRANCH  59  60
ENDBRANCH  58  59
ENDBRANCH  54  58
ENDBRANCH  51  54
ENDBRANCH  49  50
BRANCH  49  63
ATOM     63  CB  LEU     6      61.338  39.359  53.209  1.00  0.00     0.032 C 
BRANCH  63  64
ATOM     64  CG  LEU     6      62.380  39.901  54.195  1.00  0.00     0.002 C 
ATOM     65  CD2 LEU     6      61.729  40.348  55.507  1.00  0.00     0.000 C 
ATOM     66  CD1 LEU     6      63.111  41.084  53.559  1.00  0.00     0.000 C 
ENDBRANCH  63  64
ENDBRANCH  49  63
ENDBRANCH  47  49
ENDBRANCH  40  45
ENDBRANCH  38  40
ENDBRANCH  32  36
ENDBRANCH  30  32
ENDBRANCH  23  28
ENDBRANCH  20  23
ENDBRANCH  14  19
ENDBRANCH  12  14
ENDBRANCH   5  10
ENDBRANCH   1   5
TORSDOF 28
ENDMDL
