MODEL 1
REMARK VINA RESULT:      -4.9      0.000      0.000
REMARK  17 active torsions:
REMARK  status: ('A' for Active; 'I' for Inactive)
REMARK    1  A    between atoms: N_1  and  CA_2 
REMARK    2  A    between atoms: CA_2  and  C_3 
REMARK    3  A    between atoms: CA_2  and  CB_5 
REMARK       I    between atoms: C_3  and  N_12 
REMARK    4  A    between atoms: CB_5  and  CG_6 
REMARK    5  A    between atoms: N_12  and  CA_13 
REMARK    6  A    between atoms: CA_13  and  C_14 
REMARK    7  A    between atoms: CA_13  and  CB_16 
REMARK       I    between atoms: C_14  and  N_21 
REMARK    8  A    between atoms: CB_16  and  CG_17 
REMARK    9  A    between atoms: N_21  and  CA_22 
REMARK   10  A    between atoms: CA_22  and  C_23 
REMARK   11  A    between atoms: CA_22  and  CB_25 
REMARK       I    between atoms: C_23  and  N_31 
REMARK   12  A    between atoms: CB_25  and  CG_26 
REMARK   13  A    between atoms: CG_26  and  CD_27 
REMARK   14  A    between atoms: N_31  and  CA_32 
REMARK   15  A    between atoms: CA_32  and  C_33 
REMARK   16  A    between atoms: CA_32  and  CB_35 
REMARK   17  A    between atoms: CB_35  and  CG_36 
ROOT
ATOM      1  N   LEU A   1      60.950  40.767  49.388  1.00  0.00    -0.058 N 
ATOM      2  H1  LEU A   1      61.649  40.398  48.776  1.00 99.99     0.276 HD
ATOM      3  H2  LEU A   1      60.942  40.305  50.276  1.00 99.99     0.276 HD
ATOM      4  H3  LEU A   1      60.029  40.624  49.039  1.00 99.99     0.276 HD
ENDROOT
BRANCH   1   5
ATOM      5  CA  LEU A   1      61.124  42.215  49.622  1.00  0.00     0.255 C 
BRANCH   5   6
ATOM      6  C   LEU A   1      60.224  42.985  48.615  1.00  0.00     0.259 C 
ATOM      7  O   LEU A   1      60.653  43.991  48.067  1.00  0.00    -0.271 OA
ATOM      8  N   LEU A   2      59.043  42.456  48.297  1.00  0.00    -0.338 N 
ATOM      9  H   LEU A   2      58.626  41.695  48.804  1.00 99.99     0.164 HD
BRANCH   8  10
ATOM     10  CA  LEU A   2      58.091  43.084  47.374  1.00  0.00     0.159 C 
BRANCH  10  11
ATOM     11  C   LEU A   2      56.885  43.566  48.214  1.00  0.00     0.251 C 
ATOM     12  O   LEU A   2      56.458  44.702  48.059  1.00  0.00    -0.271 OA
ATOM     13  N   GLU A   3      56.300  42.674  49.006  1.00  0.00    -0.338 N 
ATOM     14  H   GLU A   3      56.680  41.755  49.159  1.00 99.99     0.164 HD
BRANCH  13  15
ATOM     15  CA  GLU A   3      55.175  42.986  49.904  1.00  0.00     0.160 C 
BRANCH  15  16
ATOM     16  C   GLU A   3      55.728  43.009  51.346  1.00  0.00     0.251 C 
ATOM     17  O   GLU A   3      55.519  43.980  52.061  1.00  0.00    -0.271 OA
ATOM     18  N   LEU A   4      56.296  41.887  51.754  1.00  0.00    -0.336 N 
ATOM     19  H   LEU A   4      56.375  41.071  51.176  1.00 99.99     0.164 HD
BRANCH  18  20
ATOM     20  CA  LEU A   4      56.918  41.743  53.085  1.00  0.00     0.168 C 
BRANCH  20  21
ATOM     21  C   LEU A   4      58.446  42.101  53.079  1.00  0.00     0.206 C 
ATOM     22  O   LEU A   4      59.208  41.103  52.856  1.00  0.00    -0.646 OA
ATOM     23  OXT LEU A   4      58.809  43.245  53.188  1.00  0.00    -0.646 OA
ENDBRANCH  20  21
BRANCH  20  24
ATOM     24  CB  LEU A   4      56.709  40.333  53.651  1.00  0.00     0.033 C 
BRANCH  24  25
ATOM     25  CG  LEU A   4      55.371  40.384  54.393  1.00  0.00     0.002 C 
ATOM     26  CD1 LEU A   4      54.247  39.581  53.734  1.00  0.00     0.000 C 
ATOM     27  CD2 LEU A   4      55.533  40.324  55.910  1.00  0.00     0.000 C 
ENDBRANCH  24  25
ENDBRANCH  20  24
ENDBRANCH  18  20
ENDBRANCH  15  16
BRANCH  15  28
ATOM     28  CB  GLU A   3      54.085  41.921  49.771  1.00  0.00     0.043 C 
BRANCH  28  29
ATOM     29  CG  GLU A   3      54.530  40.846  48.790  1.00  0.00     0.100 C 
BRANCH  29  30
ATOM     30  CD  GLU A   3      54.632  39.466  49.485  1.00  0.00     0.185 C 
ATOM     31  OE2 GLU A   3      55.517  39.402  50.404  1.00  0.00    -0.647 OA
ATOM     32  OE1 GLU A   3      53.879  38.598  49.136  1.00  0.00    -0.647 OA
ENDBRANCH  29  30
ENDBRANCH  28  29
ENDBRANCH  15  28
ENDBRANCH  13  15
ENDBRANCH  10  11
BRANCH  10  33
ATOM     33  CB  LEU A   2      57.645  42.105  46.279  1.00  0.00     0.032 C 
BRANCH  33  34
ATOM     34  CG  LEU A   2      58.476  42.485  45.053  1.00  0.00     0.002 C 
ATOM     35  CD2 LEU A   2      59.612  41.502  44.783  1.00  0.00     0.000 C 
ATOM     36  CD1 LEU A   2      58.740  43.984  44.906  1.00  0.00     0.000 C 
ENDBRANCH  33  34
ENDBRANCH  10  33
ENDBRANCH   8  10
ENDBRANCH   5   6
BRANCH   5  37
ATOM     37  CB  LEU A   1      62.593  42.659  49.507  1.00  0.00     0.040 C 
BRANCH  37  38
ATOM     38  CG  LEU A   1      62.887  43.492  50.766  1.00  0.00     0.002 C 
ATOM     39  CD2 LEU A   1      62.095  43.080  52.009  1.00  0.00     0.000 C 
ATOM     40  CD1 LEU A   1      63.077  44.986  50.506  1.00  0.00     0.000 C 
ENDBRANCH  37  38
ENDBRANCH   5  37
ENDBRANCH   1   5
TORSDOF 17
ENDMDL
MODEL 2
REMARK VINA RESULT:      -4.6      1.554      2.121
REMARK  17 active torsions:
REMARK  status: ('A' for Active; 'I' for Inactive)
REMARK    1  A    between atoms: N_1  and  CA_2 
REMARK    2  A    between atoms: CA_2  and  C_3 
REMARK    3  A    between atoms: CA_2  and  CB_5 
REMARK       I    between atoms: C_3  and  N_12 
REMARK    4  A    between atoms: CB_5  and  CG_6 
REMARK    5  A    between atoms: N_12  and  CA_13 
REMARK    6  A    between atoms: CA_13  and  C_14 
REMARK    7  A    between atoms: CA_13  and  CB_16 
REMARK       I    between atoms: C_14  and  N_21 
REMARK    8  A    between atoms: CB_16  and  CG_17 
REMARK    9  A    between atoms: N_21  and  CA_22 
REMARK   10  A    between atoms: CA_22  and  C_23 
REMARK   11  A    between atoms: CA_22  and  CB_25 
REMARK       I    between atoms: C_23  and  N_31 
REMARK   12  A    between atoms: CB_25  and  CG_26 
REMARK   13  A    between atoms: CG_26  and  CD_27 
REMARK   14  A    between atoms: N_31  and  CA_32 
REMARK   15  A    between atoms: CA_32  and  C_33 
REMARK   16  A    between atoms: CA_32  and  CB_35 
REMARK   17  A    between atoms: CB_35  and  CG_36 
ROOT
ATOM      1  N   LEU A   1      61.109  42.736  49.792  1.00  0.00    -0.058 N 
ATOM      2  H1  LEU A   1      60.897  41.762  49.866  1.00 99.99     0.276 HD
ATOM      3  H2  LEU A   1      61.811  43.022  50.446  1.00 99.99     0.276 HD
ATOM      4  H3  LEU A   1      60.328  43.311  50.017  1.00 99.99     0.276 HD
ENDROOT
BRANCH   1   5
ATOM      5  CA  LEU A   1      61.563  43.104  48.435  1.00  0.00     0.255 C 
BRANCH   5   6
ATOM      6  C   LEU A   1      60.329  43.110  47.490  1.00  0.00     0.259 C 
ATOM      7  O   LEU A   1      60.466  43.429  46.317  1.00  0.00    -0.271 OA
ATOM      8  N   LEU A   2      59.170  42.660  47.970  1.00  0.00    -0.338 N 
ATOM      9  H   LEU A   2      59.005  42.492  48.947  1.00 99.99     0.164 HD
BRANCH   8  10
ATOM     10  CA  LEU A   2      57.925  42.625  47.193  1.00  0.00     0.159 C 
BRANCH  10  11
ATOM     11  C   LEU A   2      56.818  43.258  48.068  1.00  0.00     0.251 C 
ATOM     12  O   LEU A   2      56.598  44.458  47.988  1.00  0.00    -0.271 OA
ATOM     13  N   GLU A   3      56.081  42.434  48.807  1.00  0.00    -0.338 N 
ATOM     14  H   GLU A   3      56.293  41.455  48.899  1.00 99.99     0.164 HD
BRANCH  13  15
ATOM     15  CA  GLU A   3      55.023  42.881  49.728  1.00  0.00     0.160 C 
BRANCH  15  16
ATOM     16  C   GLU A   3      55.671  43.066  51.119  1.00  0.00     0.251 C 
ATOM     17  O   GLU A   3      55.353  44.020  51.815  1.00  0.00    -0.271 OA
ATOM     18  N   LEU A   4      56.452  42.077  51.516  1.00  0.00    -0.336 N 
ATOM     19  H   LEU A   4      56.627  41.259  50.962  1.00 99.99     0.164 HD
BRANCH  18  20
ATOM     20  CA  LEU A   4      57.188  42.103  52.796  1.00  0.00     0.168 C 
BRANCH  20  21
ATOM     21  C   LEU A   4      58.738  42.251  52.598  1.00  0.00     0.206 C 
ATOM     22  O   LEU A   4      59.245  43.240  53.223  1.00  0.00    -0.646 OA
ATOM     23  OXT LEU A   4      59.359  41.425  51.977  1.00  0.00    -0.646 OA
ENDBRANCH  20  21
BRANCH  20  24
ATOM     24  CB  LEU A   4      56.882  40.861  53.643  1.00  0.00     0.033 C 
BRANCH  24  25
ATOM     25  CG  LEU A   4      56.143  39.900  52.708  1.00  0.00     0.002 C 
ATOM     26  CD1 LEU A   4      56.995  38.740  52.187  1.00  0.00     0.000 C 
ATOM     27  CD2 LEU A   4      54.710  39.624  53.155  1.00  0.00     0.000 C 
ENDBRANCH  24  25
ENDBRANCH  20  24
ENDBRANCH  18  20
ENDBRANCH  15  16
BRANCH  15  28
ATOM     28  CB  GLU A   3      53.908  41.837  49.797  1.00  0.00     0.043 C 
BRANCH  28  29
ATOM     29  CG  GLU A   3      54.438  40.487  49.338  1.00  0.00     0.100 C 
BRANCH  29  30
ATOM     30  CD  GLU A   3      53.729  40.021  48.042  1.00  0.00     0.185 C 
ATOM     31  OE2 GLU A   3      54.064  40.672  46.994  1.00  0.00    -0.647 OA
ATOM     32  OE1 GLU A   3      52.964  39.098  48.113  1.00  0.00    -0.647 OA
ENDBRANCH  29  30
ENDBRANCH  28  29
ENDBRANCH  15  28
ENDBRANCH  13  15
ENDBRANCH  10  11
BRANCH  10  33
ATOM     33  CB  LEU A   2      57.559  41.190  46.790  1.00  0.00     0.032 C 
BRANCH  33  34
ATOM     34  CG  LEU A   2      58.153  41.012  45.392  1.00  0.00     0.002 C 
ATOM     35  CD2 LEU A   2      57.083  40.851  44.314  1.00  0.00     0.000 C 
ATOM     36  CD1 LEU A   2      59.399  40.127  45.341  1.00  0.00     0.000 C 
ENDBRANCH  33  34
ENDBRANCH  10  33
ENDBRANCH   8  10
ENDBRANCH   5   6
BRANCH   5  37
ATOM     37  CB  LEU A   1      62.663  42.165  47.907  1.00  0.00     0.040 C 
BRANCH  37  38
ATOM     38  CG  LEU A   1      63.809  43.076  47.433  1.00  0.00     0.002 C 
ATOM     39  CD2 LEU A   1      63.967  44.376  48.225  1.00  0.00     0.000 C 
ATOM     40  CD1 LEU A   1      63.979  43.141  45.916  1.00  0.00     0.000 C 
ENDBRANCH  37  38
ENDBRANCH   5  37
ENDBRANCH   1   5
TORSDOF 17
ENDMDL
MODEL 3
REMARK VINA RESULT:      -4.4      1.273      2.031
REMARK  17 active torsions:
REMARK  status: ('A' for Active; 'I' for Inactive)
REMARK    1  A    between atoms: N_1  and  CA_2 
REMARK    2  A    between atoms: CA_2  and  C_3 
REMARK    3  A    between atoms: CA_2  and  CB_5 
REMARK       I    between atoms: C_3  and  N_12 
REMARK    4  A    between atoms: CB_5  and  CG_6 
REMARK    5  A    between atoms: N_12  and  CA_13 
REMARK    6  A    between atoms: CA_13  and  C_14 
REMARK    7  A    between atoms: CA_13  and  CB_16 
REMARK       I    between atoms: C_14  and  N_21 
REMARK    8  A    between atoms: CB_16  and  CG_17 
REMARK    9  A    between atoms: N_21  and  CA_22 
REMARK   10  A    between atoms: CA_22  and  C_23 
REMARK   11  A    between atoms: CA_22  and  CB_25 
REMARK       I    between atoms: C_23  and  N_31 
REMARK   12  A    between atoms: CB_25  and  CG_26 
REMARK   13  A    between atoms: CG_26  and  CD_27 
REMARK   14  A    between atoms: N_31  and  CA_32 
REMARK   15  A    between atoms: CA_32  and  C_33 
REMARK   16  A    between atoms: CA_32  and  CB_35 
REMARK   17  A    between atoms: CB_35  and  CG_36 
ROOT
ATOM      1  N   LEU A   1      61.170  42.686  50.674  1.00  0.00    -0.058 N 
ATOM      2  H1  LEU A   1      61.664  42.172  51.375  1.00 99.99     0.276 HD
ATOM      3  H2  LEU A   1      61.575  43.586  50.508  1.00 99.99     0.276 HD
ATOM      4  H3  LEU A   1      60.236  42.894  50.946  1.00 99.99     0.276 HD
ENDROOT
BRANCH   1   5
ATOM      5  CA  LEU A   1      61.114  41.959  49.389  1.00  0.00     0.255 C 
BRANCH   5   6
ATOM      6  C   LEU A   1      60.240  42.781  48.401  1.00  0.00     0.259 C 
ATOM      7  O   LEU A   1      60.730  43.729  47.803  1.00  0.00    -0.271 OA
ATOM      8  N   LEU A   2      59.002  42.353  48.154  1.00  0.00    -0.338 N 
ATOM      9  H   LEU A   2      58.543  41.646  48.701  1.00 99.99     0.164 HD
BRANCH   8  10
ATOM     10  CA  LEU A   2      58.067  43.041  47.256  1.00  0.00     0.159 C 
BRANCH  10  11
ATOM     11  C   LEU A   2      56.884  43.541  48.119  1.00  0.00     0.251 C 
ATOM     12  O   LEU A   2      56.362  44.616  47.861  1.00  0.00    -0.271 OA
ATOM     13  N   GLU A   3      56.423  42.717  49.055  1.00  0.00    -0.338 N 
ATOM     14  H   GLU A   3      56.882  41.853  49.288  1.00 99.99     0.164 HD
BRANCH  13  15
ATOM     15  CA  GLU A   3      55.338  43.062  49.989  1.00  0.00     0.160 C 
BRANCH  15  16
ATOM     16  C   GLU A   3      55.898  42.912  51.421  1.00  0.00     0.251 C 
ATOM     17  O   GLU A   3      55.562  43.705  52.291  1.00  0.00    -0.271 OA
ATOM     18  N   LEU A   4      56.622  41.828  51.636  1.00  0.00    -0.336 N 
ATOM     19  H   LEU A   4      56.810  41.144  50.927  1.00 99.99     0.164 HD
BRANCH  18  20
ATOM     20  CA  LEU A   4      57.273  41.544  52.931  1.00  0.00     0.168 C 
BRANCH  20  21
ATOM     21  C   LEU A   4      58.759  42.046  52.982  1.00  0.00     0.206 C 
ATOM     22  O   LEU A   4      59.622  41.116  52.850  1.00  0.00    -0.646 OA
ATOM     23  OXT LEU A   4      59.006  43.224  53.049  1.00  0.00    -0.646 OA
ENDBRANCH  20  21
BRANCH  20  24
ATOM     24  CB  LEU A   4      57.209  40.050  53.274  1.00  0.00     0.033 C 
BRANCH  24  25
ATOM     25  CG  LEU A   4      55.723  39.741  53.479  1.00  0.00     0.002 C 
ATOM     26  CD1 LEU A   4      55.354  38.264  53.327  1.00  0.00     0.000 C 
ATOM     27  CD2 LEU A   4      55.104  40.545  54.620  1.00  0.00     0.000 C 
ENDBRANCH  24  25
ENDBRANCH  20  24
ENDBRANCH  18  20
ENDBRANCH  15  16
BRANCH  15  28
ATOM     28  CB  GLU A   3      54.149  42.122  49.783  1.00  0.00     0.043 C 
BRANCH  28  29
ATOM     29  CG  GLU A   3      54.566  40.942  48.919  1.00  0.00     0.100 C 
BRANCH  29  30
ATOM     30  CD  GLU A   3      54.694  39.651  49.762  1.00  0.00     0.185 C 
ATOM     31  OE2 GLU A   3      55.896  39.261  49.953  1.00  0.00    -0.647 OA
ATOM     32  OE1 GLU A   3      53.689  39.144  50.182  1.00  0.00    -0.647 OA
ENDBRANCH  29  30
ENDBRANCH  28  29
ENDBRANCH  15  28
ENDBRANCH  13  15
ENDBRANCH  10  11
BRANCH  10  33
ATOM     33  CB  LEU A   2      57.579  42.109  46.138  1.00  0.00     0.032 C 
BRANCH  33  34
ATOM     34  CG  LEU A   2      58.390  42.519  44.907  1.00  0.00     0.002 C 
ATOM     35  CD2 LEU A   2      58.709  44.011  44.882  1.00  0.00     0.000 C 
ATOM     36  CD1 LEU A   2      57.966  41.827  43.610  1.00  0.00     0.000 C 
ENDBRANCH  33  34
ENDBRANCH  10  33
ENDBRANCH   8  10
ENDBRANCH   5   6
BRANCH   5  37
ATOM     37  CB  LEU A   1      60.578  40.525  49.546  1.00  0.00     0.040 C 
BRANCH  37  38
ATOM     38  CG  LEU A   1      61.332  39.672  48.510  1.00  0.00     0.002 C 
ATOM     39  CD2 LEU A   1      60.442  38.994  47.466  1.00  0.00     0.000 C 
ATOM     40  CD1 LEU A   1      62.500  38.870  49.081  1.00  0.00     0.000 C 
ENDBRANCH  37  38
ENDBRANCH   5  37
ENDBRANCH   1   5
TORSDOF 17
ENDMDL
MODEL 4
REMARK VINA RESULT:      -4.4      2.343      5.241
REMARK  17 active torsions:
REMARK  status: ('A' for Active; 'I' for Inactive)
REMARK    1  A    between atoms: N_1  and  CA_2 
REMARK    2  A    between atoms: CA_2  and  C_3 
REMARK    3  A    between atoms: CA_2  and  CB_5 
REMARK       I    between atoms: C_3  and  N_12 
REMARK    4  A    between atoms: CB_5  and  CG_6 
REMARK    5  A    between atoms: N_12  and  CA_13 
REMARK    6  A    between atoms: CA_13  and  C_14 
REMARK    7  A    between atoms: CA_13  and  CB_16 
REMARK       I    between atoms: C_14  and  N_21 
REMARK    8  A    between atoms: CB_16  and  CG_17 
REMARK    9  A    between atoms: N_21  and  CA_22 
REMARK   10  A    between atoms: CA_22  and  C_23 
REMARK   11  A    between atoms: CA_22  and  CB_25 
REMARK       I    between atoms: C_23  and  N_31 
REMARK   12  A    between atoms: CB_25  and  CG_26 
REMARK   13  A    between atoms: CG_26  and  CD_27 
REMARK   14  A    between atoms: N_31  and  CA_32 
REMARK   15  A    between atoms: CA_32  and  C_33 
REMARK   16  A    between atoms: CA_32  and  CB_35 
REMARK   17  A    between atoms: CB_35  and  CG_36 
ROOT
ATOM      1  N   LEU A   1      59.753  41.640  53.479  1.00  0.00    -0.058 N 
ATOM      2  H1  LEU A   1      59.496  42.456  53.997  1.00 99.99     0.276 HD
ATOM      3  H2  LEU A   1      59.194  41.521  52.657  1.00 99.99     0.276 HD
ATOM      4  H3  LEU A   1      59.598  40.802  53.993  1.00 99.99     0.276 HD
ENDROOT
BRANCH   1   5
ATOM      5  CA  LEU A   1      61.173  41.664  53.073  1.00  0.00     0.255 C 
BRANCH   5   6
ATOM      6  C   LEU A   1      61.394  42.886  52.136  1.00  0.00     0.259 C 
ATOM      7  O   LEU A   1      61.397  44.015  52.606  1.00  0.00    -0.271 OA
ATOM      8  N   LEU A   2      61.683  42.651  50.857  1.00  0.00    -0.338 N 
ATOM      9  H   LEU A   2      61.587  41.748  50.426  1.00 99.99     0.164 HD
BRANCH   8  10
ATOM     10  CA  LEU A   2      61.899  43.709  49.863  1.00  0.00     0.159 C 
BRANCH  10  11
ATOM     11  C   LEU A   2      61.051  43.353  48.620  1.00  0.00     0.251 C 
ATOM     12  O   LEU A   2      61.570  43.364  47.512  1.00  0.00    -0.271 OA
ATOM     13  N   GLU A   3      59.803  42.949  48.831  1.00  0.00    -0.338 N 
ATOM     14  H   GLU A   3      59.370  42.980  49.738  1.00 99.99     0.164 HD
BRANCH  13  15
ATOM     15  CA  GLU A   3      58.853  42.621  47.753  1.00  0.00     0.160 C 
BRANCH  15  16
ATOM     16  C   GLU A   3      57.430  42.849  48.309  1.00  0.00     0.251 C 
ATOM     17  O   GLU A   3      56.576  43.365  47.599  1.00  0.00    -0.271 OA
ATOM     18  N   LEU A   4      57.198  42.336  49.504  1.00  0.00    -0.336 N 
ATOM     19  H   LEU A   4      57.891  41.836  50.030  1.00 99.99     0.164 HD
BRANCH  18  20
ATOM     20  CA  LEU A   4      55.910  42.495  50.208  1.00  0.00     0.168 C 
BRANCH  20  21
ATOM     21  C   LEU A   4      56.063  43.220  51.591  1.00  0.00     0.206 C 
ATOM     22  O   LEU A   4      57.038  42.791  52.293  1.00  0.00    -0.646 OA
ATOM     23  OXT LEU A   4      55.356  44.154  51.876  1.00  0.00    -0.646 OA
ENDBRANCH  20  21
BRANCH  20  24
ATOM     24  CB  LEU A   4      55.204  41.146  50.396  1.00  0.00     0.033 C 
BRANCH  24  25
ATOM     25  CG  LEU A   4      54.150  41.078  49.288  1.00  0.00     0.002 C 
ATOM     26  CD1 LEU A   4      54.574  40.279  48.054  1.00  0.00     0.000 C 
ATOM     27  CD2 LEU A   4      52.733  40.908  49.830  1.00  0.00     0.000 C 
ENDBRANCH  24  25
ENDBRANCH  20  24
ENDBRANCH  18  20
ENDBRANCH  15  16
BRANCH  15  28
ATOM     28  CB  GLU A   3      59.028  41.163  47.324  1.00  0.00     0.043 C 
BRANCH  28  29
ATOM     29  CG  GLU A   3      58.509  40.978  45.906  1.00  0.00     0.100 C 
BRANCH  29  30
ATOM     30  CD  GLU A   3      59.208  41.950  44.924  1.00  0.00     0.185 C 
ATOM     31  OE2 GLU A   3      60.444  41.698  44.723  1.00  0.00    -0.647 OA
ATOM     32  OE1 GLU A   3      58.550  42.821  44.423  1.00  0.00    -0.647 OA
ENDBRANCH  29  30
ENDBRANCH  28  29
ENDBRANCH  15  28
ENDBRANCH  13  15
ENDBRANCH  10  11
BRANCH  10  33
ATOM     33  CB  LEU A   2      63.385  43.839  49.500  1.00  0.00     0.032 C 
BRANCH  33  34
ATOM     34  CG  LEU A   2      63.831  45.154  50.142  1.00  0.00     0.002 C 
ATOM     35  CD2 LEU A   2      62.698  46.173  50.245  1.00  0.00     0.000 C 
ATOM     36  CD1 LEU A   2      65.221  45.628  49.715  1.00  0.00     0.000 C 
ENDBRANCH  33  34
ENDBRANCH  10  33
ENDBRANCH   8  10
ENDBRANCH   5   6
BRANCH   5  37
ATOM     37  CB  LEU A   1      61.614  40.355  52.393  1.00  0.00     0.040 C 
BRANCH  37  38
ATOM     38  CG  LEU A   1      62.591  39.676  53.368  1.00  0.00     0.002 C 
ATOM     39  CD2 LEU A   1      61.956  38.634  54.292  1.00  0.00     0.000 C 
ATOM     40  CD1 LEU A   1      63.641  40.612  53.964  1.00  0.00     0.000 C 
ENDBRANCH  37  38
ENDBRANCH   5  37
ENDBRANCH   1   5
TORSDOF 17
ENDMDL
MODEL 5
REMARK VINA RESULT:      -4.3      2.498      7.047
REMARK  17 active torsions:
REMARK  status: ('A' for Active; 'I' for Inactive)
REMARK    1  A    between atoms: N_1  and  CA_2 
REMARK    2  A    between atoms: CA_2  and  C_3 
REMARK    3  A    between atoms: CA_2  and  CB_5 
REMARK       I    between atoms: C_3  and  N_12 
REMARK    4  A    between atoms: CB_5  and  CG_6 
REMARK    5  A    between atoms: N_12  and  CA_13 
REMARK    6  A    between atoms: CA_13  and  C_14 
REMARK    7  A    between atoms: CA_13  and  CB_16 
REMARK       I    between atoms: C_14  and  N_21 
REMARK    8  A    between atoms: CB_16  and  CG_17 
REMARK    9  A    between atoms: N_21  and  CA_22 
REMARK   10  A    between atoms: CA_22  and  C_23 
REMARK   11  A    between atoms: CA_22  and  CB_25 
REMARK       I    between atoms: C_23  and  N_31 
REMARK   12  A    between atoms: CB_25  and  CG_26 
REMARK   13  A    between atoms: CG_26  and  CD_27 
REMARK   14  A    between atoms: N_31  and  CA_32 
REMARK   15  A    between atoms: CA_32  and  C_33 
REMARK   16  A    between atoms: CA_32  and  CB_35 
REMARK   17  A    between atoms: CB_35  and  CG_36 
ROOT
ATOM      1  N   LEU A   1      63.254  41.669  52.646  1.00  0.00    -0.058 N 
ATOM      2  H1  LEU A   1      62.845  41.542  53.549  1.00 99.99     0.276 HD
ATOM      3  H2  LEU A   1      63.527  40.801  52.228  1.00 99.99     0.276 HD
ATOM      4  H3  LEU A   1      64.103  42.188  52.686  1.00 99.99     0.276 HD
ENDROOT
BRANCH   1   5
ATOM      5  CA  LEU A   1      62.343  42.366  51.715  1.00  0.00     0.255 C 
BRANCH   5   6
ATOM      6  C   LEU A   1      61.001  41.583  51.667  1.00  0.00     0.259 C 
ATOM      7  O   LEU A   1      60.989  40.386  51.922  1.00  0.00    -0.271 OA
ATOM      8  N   LEU A   2      59.881  42.271  51.452  1.00  0.00    -0.338 N 
ATOM      9  H   LEU A   2      59.871  43.227  51.141  1.00 99.99     0.164 HD
BRANCH   8  10
ATOM     10  CA  LEU A   2      58.550  41.657  51.368  1.00  0.00     0.159 C 
BRANCH  10  11
ATOM     11  C   LEU A   2      58.326  41.248  49.893  1.00  0.00     0.251 C 
ATOM     12  O   LEU A   2      57.799  40.174  49.639  1.00  0.00    -0.271 OA
ATOM     13  N   GLU A   3      58.633  42.143  48.960  1.00  0.00    -0.338 N 
ATOM     14  H   GLU A   3      59.102  43.007  49.173  1.00 99.99     0.164 HD
BRANCH  13  15
ATOM     15  CA  GLU A   3      58.523  41.891  47.513  1.00  0.00     0.160 C 
BRANCH  15  16
ATOM     16  C   GLU A   3      59.771  42.509  46.842  1.00  0.00     0.251 C 
ATOM     17  O   GLU A   3      60.578  43.133  47.518  1.00  0.00    -0.271 OA
ATOM     18  N   LEU A   4      59.942  42.199  45.569  1.00  0.00    -0.336 N 
ATOM     19  H   LEU A   4      59.311  41.610  45.058  1.00 99.99     0.164 HD
BRANCH  18  20
ATOM     20  CA  LEU A   4      61.053  42.734  44.757  1.00  0.00     0.168 C 
BRANCH  20  21
ATOM     21  C   LEU A   4      60.587  43.214  43.337  1.00  0.00     0.206 C 
ATOM     22  O   LEU A   4      61.409  42.934  42.403  1.00  0.00    -0.646 OA
ATOM     23  OXT LEU A   4      59.500  43.713  43.185  1.00  0.00    -0.646 OA
ENDBRANCH  20  21
BRANCH  20  24
ATOM     24  CB  LEU A   4      62.190  41.713  44.622  1.00  0.00     0.033 C 
BRANCH  24  25
ATOM     25  CG  LEU A   4      63.306  42.221  45.538  1.00  0.00     0.002 C 
ATOM     26  CD1 LEU A   4      63.576  41.339  46.760  1.00  0.00     0.000 C 
ATOM     27  CD2 LEU A   4      64.490  42.797  44.765  1.00  0.00     0.000 C 
ENDBRANCH  24  25
ENDBRANCH  20  24
ENDBRANCH  18  20
ENDBRANCH  15  16
BRANCH  15  28
ATOM     28  CB  GLU A   3      57.251  42.535  46.961  1.00  0.00     0.043 C 
BRANCH  28  29
ATOM     29  CG  GLU A   3      57.240  44.021  47.290  1.00  0.00     0.100 C 
BRANCH  29  30
ATOM     30  CD  GLU A   3      56.103  44.364  48.283  1.00  0.00     0.185 C 
ATOM     31  OE2 GLU A   3      55.572  43.349  48.850  1.00  0.00    -0.647 OA
ATOM     32  OE1 GLU A   3      55.832  45.521  48.460  1.00  0.00    -0.647 OA
ENDBRANCH  29  30
ENDBRANCH  28  29
ENDBRANCH  15  28
ENDBRANCH  13  15
ENDBRANCH  10  11
BRANCH  10  33
ATOM     33  CB  LEU A   2      57.458  42.622  51.846  1.00  0.00     0.032 C 
BRANCH  33  34
ATOM     34  CG  LEU A   2      56.474  41.746  52.624  1.00  0.00     0.002 C 
ATOM     35  CD2 LEU A   2      57.175  40.735  53.528  1.00  0.00     0.000 C 
ATOM     36  CD1 LEU A   2      55.249  41.304  51.822  1.00  0.00     0.000 C 
ENDBRANCH  33  34
ENDBRANCH  10  33
ENDBRANCH   8  10
ENDBRANCH   5   6
BRANCH   5  37
ATOM     37  CB  LEU A   1      62.947  42.522  50.307  1.00  0.00     0.040 C 
BRANCH  37  38
ATOM     38  CG  LEU A   1      63.376  43.995  50.189  1.00  0.00     0.002 C 
ATOM     39  CD2 LEU A   1      62.637  44.956  51.123  1.00  0.00     0.000 C 
ATOM     40  CD1 LEU A   1      63.652  44.460  48.760  1.00  0.00     0.000 C 
ENDBRANCH  37  38
ENDBRANCH   5  37
ENDBRANCH   1   5
TORSDOF 17
ENDMDL
MODEL 6
REMARK VINA RESULT:      -4.2      2.029      4.932
REMARK  17 active torsions:
REMARK  status: ('A' for Active; 'I' for Inactive)
REMARK    1  A    between atoms: N_1  and  CA_2 
REMARK    2  A    between atoms: CA_2  and  C_3 
REMARK    3  A    between atoms: CA_2  and  CB_5 
REMARK       I    between atoms: C_3  and  N_12 
REMARK    4  A    between atoms: CB_5  and  CG_6 
REMARK    5  A    between atoms: N_12  and  CA_13 
REMARK    6  A    between atoms: CA_13  and  C_14 
REMARK    7  A    between atoms: CA_13  and  CB_16 
REMARK       I    between atoms: C_14  and  N_21 
REMARK    8  A    between atoms: CB_16  and  CG_17 
REMARK    9  A    between atoms: N_21  and  CA_22 
REMARK   10  A    between atoms: CA_22  and  C_23 
REMARK   11  A    between atoms: CA_22  and  CB_25 
REMARK       I    between atoms: C_23  and  N_31 
REMARK   12  A    between atoms: CB_25  and  CG_26 
REMARK   13  A    between atoms: CG_26  and  CD_27 
REMARK   14  A    between atoms: N_31  and  CA_32 
REMARK   15  A    between atoms: CA_32  and  C_33 
REMARK   16  A    between atoms: CA_32  and  CB_35 
REMARK   17  A    between atoms: CB_35  and  CG_36 
ROOT
ATOM      1  N   LEU A   1      61.807  40.013  52.026  1.00  0.00    -0.058 N 
ATOM      2  H1  LEU A   1      62.123  39.806  52.951  1.00 99.99     0.276 HD
ATOM      3  H2  LEU A   1      61.655  39.185  51.483  1.00 99.99     0.276 HD
ATOM      4  H3  LEU A   1      62.483  40.519  51.499  1.00 99.99     0.276 HD
ENDROOT
BRANCH   1   5
ATOM      5  CA  LEU A   1      60.557  40.801  52.028  1.00  0.00     0.255 C 
BRANCH   5   6
ATOM      6  C   LEU A   1      60.821  42.140  51.284  1.00  0.00     0.259 C 
ATOM      7  O   LEU A   1      60.859  43.186  51.916  1.00  0.00    -0.271 OA
ATOM      8  N   LEU A   2      61.106  42.088  49.983  1.00  0.00    -0.338 N 
ATOM      9  H   LEU A   2      60.981  41.263  49.423  1.00 99.99     0.164 HD
BRANCH   8  10
ATOM     10  CA  LEU A   2      61.360  43.275  49.158  1.00  0.00     0.159 C 
BRANCH  10  11
ATOM     11  C   LEU A   2      60.294  43.293  48.037  1.00  0.00     0.251 C 
ATOM     12  O   LEU A   2      60.645  43.420  46.873  1.00  0.00    -0.271 OA
ATOM     13  N   GLU A   3      59.033  43.067  48.394  1.00  0.00    -0.338 N 
ATOM     14  H   GLU A   3      58.747  43.004  49.356  1.00 99.99     0.164 HD
BRANCH  13  15
ATOM     15  CA  GLU A   3      57.897  43.099  47.458  1.00  0.00     0.160 C 
BRANCH  15  16
ATOM     16  C   GLU A   3      56.643  43.498  48.268  1.00  0.00     0.251 C 
ATOM     17  O   GLU A   3      56.143  44.603  48.108  1.00  0.00    -0.271 OA
ATOM     18  N   LEU A   4      56.114  42.536  49.004  1.00  0.00    -0.336 N 
ATOM     19  H   LEU A   4      56.493  41.608  49.048  1.00 99.99     0.164 HD
BRANCH  18  20
ATOM     20  CA  LEU A   4      54.942  42.748  49.875  1.00  0.00     0.168 C 
BRANCH  20  21
ATOM     21  C   LEU A   4      55.343  43.119  51.347  1.00  0.00     0.206 C 
ATOM     22  O   LEU A   4      55.755  42.127  52.034  1.00  0.00    -0.646 OA
ATOM     23  OXT LEU A   4      55.332  44.267  51.714  1.00  0.00    -0.646 OA
ENDBRANCH  20  21
BRANCH  20  24
ATOM     24  CB  LEU A   4      54.014  41.526  49.874  1.00  0.00     0.033 C 
BRANCH  24  25
ATOM     25  CG  LEU A   4      54.754  40.453  49.071  1.00  0.00     0.002 C 
ATOM     26  CD1 LEU A   4      55.333  39.314  49.912  1.00  0.00     0.000 C 
ATOM     27  CD2 LEU A   4      54.061  40.120  47.751  1.00  0.00     0.000 C 
ENDBRANCH  24  25
ENDBRANCH  20  24
ENDBRANCH  18  20
ENDBRANCH  15  16
BRANCH  15  28
ATOM     28  CB  GLU A   3      57.702  41.723  46.820  1.00  0.00     0.043 C 
BRANCH  28  29
ATOM     29  CG  GLU A   3      57.901  41.819  45.315  1.00  0.00     0.100 C 
BRANCH  29  30
ATOM     30  CD  GLU A   3      57.112  40.710  44.576  1.00  0.00     0.185 C 
ATOM     31  OE2 GLU A   3      57.814  40.009  43.771  1.00  0.00    -0.647 OA
ATOM     32  OE1 GLU A   3      55.945  40.580  44.828  1.00  0.00    -0.647 OA
ENDBRANCH  29  30
ENDBRANCH  28  29
ENDBRANCH  15  28
ENDBRANCH  13  15
ENDBRANCH  10  11
BRANCH  10  33
ATOM     33  CB  LEU A   2      62.778  43.253  48.570  1.00  0.00     0.032 C 
BRANCH  33  34
ATOM     34  CG  LEU A   2      63.360  44.628  48.902  1.00  0.00     0.002 C 
ATOM     35  CD2 LEU A   2      64.651  44.920  48.141  1.00  0.00     0.000 C 
ATOM     36  CD1 LEU A   2      63.263  45.017  50.378  1.00  0.00     0.000 C 
ENDBRANCH  33  34
ENDBRANCH  10  33
ENDBRANCH   8  10
ENDBRANCH   5   6
BRANCH   5  37
ATOM     37  CB  LEU A   1      60.022  41.051  53.450  1.00  0.00     0.040 C 
BRANCH  37  38
ATOM     38  CG  LEU A   1      58.787  40.145  53.606  1.00  0.00     0.002 C 
ATOM     39  CD2 LEU A   1      58.221  39.600  52.293  1.00  0.00     0.000 C 
ATOM     40  CD1 LEU A   1      57.796  40.606  54.673  1.00  0.00     0.000 C 
ENDBRANCH  37  38
ENDBRANCH   5  37
ENDBRANCH   1   5
TORSDOF 17
ENDMDL
MODEL 7
REMARK VINA RESULT:      -4.2      3.240      6.590
REMARK  17 active torsions:
REMARK  status: ('A' for Active; 'I' for Inactive)
REMARK    1  A    between atoms: N_1  and  CA_2 
REMARK    2  A    between atoms: CA_2  and  C_3 
REMARK    3  A    between atoms: CA_2  and  CB_5 
REMARK       I    between atoms: C_3  and  N_12 
REMARK    4  A    between atoms: CB_5  and  CG_6 
REMARK    5  A    between atoms: N_12  and  CA_13 
REMARK    6  A    between atoms: CA_13  and  C_14 
REMARK    7  A    between atoms: CA_13  and  CB_16 
REMARK       I    between atoms: C_14  and  N_21 
REMARK    8  A    between atoms: CB_16  and  CG_17 
REMARK    9  A    between atoms: N_21  and  CA_22 
REMARK   10  A    between atoms: CA_22  and  C_23 
REMARK   11  A    between atoms: CA_22  and  CB_25 
REMARK       I    between atoms: C_23  and  N_31 
REMARK   12  A    between atoms: CB_25  and  CG_26 
REMARK   13  A    between atoms: CG_26  and  CD_27 
REMARK   14  A    between atoms: N_31  and  CA_32 
REMARK   15  A    between atoms: CA_32  and  C_33 
REMARK   16  A    between atoms: CA_32  and  CB_35 
REMARK   17  A    between atoms: CB_35  and  CG_36 
ROOT
ATOM      1  N   LEU A   1      58.256  39.754  48.226  1.00  0.00    -0.058 N 
ATOM      2  H1  LEU A   1      59.075  39.224  48.442  1.00 99.99     0.276 HD
ATOM      3  H2  LEU A   1      57.635  39.828  49.009  1.00 99.99     0.276 HD
ATOM      4  H3  LEU A   1      57.699  39.320  47.525  1.00 99.99     0.276 HD
ENDROOT
BRANCH   1   5
ATOM      5  CA  LEU A   1      58.581  41.119  47.764  1.00  0.00     0.255 C 
BRANCH   5   6
ATOM      6  C   LEU A   1      60.058  41.133  47.281  1.00  0.00     0.259 C 
ATOM      7  O   LEU A   1      60.420  40.347  46.416  1.00  0.00    -0.271 OA
ATOM      8  N   LEU A   2      60.863  42.083  47.754  1.00  0.00    -0.338 N 
ATOM      9  H   LEU A   2      60.625  42.671  48.534  1.00 99.99     0.164 HD
BRANCH   8  10
ATOM     10  CA  LEU A   2      62.281  42.203  47.395  1.00  0.00     0.159 C 
BRANCH  10  11
ATOM     11  C   LEU A   2      63.036  42.688  48.655  1.00  0.00     0.251 C 
ATOM     12  O   LEU A   2      64.182  42.309  48.855  1.00  0.00    -0.271 OA
ATOM     13  N   GLU A   3      62.426  43.587  49.421  1.00  0.00    -0.338 N 
ATOM     14  H   GLU A   3      61.471  43.864  49.274  1.00 99.99     0.164 HD
BRANCH  13  15
ATOM     15  CA  GLU A   3      62.988  44.111  50.677  1.00  0.00     0.160 C 
BRANCH  15  16
ATOM     16  C   GLU A   3      62.145  43.532  51.836  1.00  0.00     0.251 C 
ATOM     17  O   GLU A   3      61.634  44.288  52.651  1.00  0.00    -0.271 OA
ATOM     18  N   LEU A   4      61.928  42.230  51.784  1.00  0.00    -0.336 N 
ATOM     19  H   LEU A   4      62.285  41.643  51.052  1.00 99.99     0.164 HD
BRANCH  18  20
ATOM     20  CA  LEU A   4      61.181  41.501  52.828  1.00  0.00     0.168 C 
BRANCH  20  21
ATOM     21  C   LEU A   4      61.987  40.285  53.408  1.00  0.00     0.206 C 
ATOM     22  O   LEU A   4      62.733  40.587  54.398  1.00  0.00    -0.646 OA
ATOM     23  OXT LEU A   4      61.810  39.172  52.981  1.00  0.00    -0.646 OA
ENDBRANCH  20  21
BRANCH  20  24
ATOM     24  CB  LEU A   4      59.815  41.029  52.314  1.00  0.00     0.033 C 
BRANCH  24  25
ATOM     25  CG  LEU A   4      58.788  41.615  53.288  1.00  0.00     0.002 C 
ATOM     26  CD1 LEU A   4      57.923  42.733  52.702  1.00  0.00     0.000 C 
ATOM     27  CD2 LEU A   4      58.132  40.552  54.165  1.00  0.00     0.000 C 
ENDBRANCH  24  25
ENDBRANCH  20  24
ENDBRANCH  18  20
ENDBRANCH  15  16
BRANCH  15  28
ATOM     28  CB  GLU A   3      62.924  45.639  50.686  1.00  0.00     0.043 C 
BRANCH  28  29
ATOM     29  CG  GLU A   3      63.547  46.188  49.411  1.00  0.00     0.100 C 
BRANCH  29  30
ATOM     30  CD  GLU A   3      65.085  46.019  49.425  1.00  0.00     0.185 C 
ATOM     31  OE2 GLU A   3      65.573  45.535  48.347  1.00  0.00    -0.647 OA
ATOM     32  OE1 GLU A   3      65.687  46.369  50.404  1.00  0.00    -0.647 OA
ENDBRANCH  29  30
ENDBRANCH  28  29
ENDBRANCH  15  28
ENDBRANCH  13  15
ENDBRANCH  10  11
BRANCH  10  33
ATOM     33  CB  LEU A   2      62.481  43.175  46.223  1.00  0.00     0.032 C 
BRANCH  33  34
ATOM     34  CG  LEU A   2      63.393  42.429  45.247  1.00  0.00     0.002 C 
ATOM     35  CD2 LEU A   2      64.847  42.886  45.335  1.00  0.00     0.000 C 
ATOM     36  CD1 LEU A   2      62.774  42.174  43.872  1.00  0.00     0.000 C 
ENDBRANCH  33  34
ENDBRANCH  10  33
ENDBRANCH   8  10
ENDBRANCH   5   6
BRANCH   5  37
ATOM     37  CB  LEU A   1      58.340  42.182  48.851  1.00  0.00     0.040 C 
BRANCH  37  38
ATOM     38  CG  LEU A   1      56.976  42.818  48.530  1.00  0.00     0.002 C 
ATOM     39  CD2 LEU A   1      57.047  44.118  47.726  1.00  0.00     0.000 C 
ATOM     40  CD1 LEU A   1      55.959  42.738  49.667  1.00  0.00     0.000 C 
ENDBRANCH  37  38
ENDBRANCH   5  37
ENDBRANCH   1   5
TORSDOF 17
ENDMDL
MODEL 8
REMARK VINA RESULT:      -4.1     13.983     17.446
REMARK  17 active torsions:
REMARK  status: ('A' for Active; 'I' for Inactive)
REMARK    1  A    between atoms: N_1  and  CA_2 
REMARK    2  A    between atoms: CA_2  and  C_3 
REMARK    3  A    between atoms: CA_2  and  CB_5 
REMARK       I    between atoms: C_3  and  N_12 
REMARK    4  A    between atoms: CB_5  and  CG_6 
REMARK    5  A    between atoms: N_12  and  CA_13 
REMARK    6  A    between atoms: CA_13  and  C_14 
REMARK    7  A    between atoms: CA_13  and  CB_16 
REMARK       I    between atoms: C_14  and  N_21 
REMARK    8  A    between atoms: CB_16  and  CG_17 
REMARK    9  A    between atoms: N_21  and  CA_22 
REMARK   10  A    between atoms: CA_22  and  C_23 
REMARK   11  A    between atoms: CA_22  and  CB_25 
REMARK       I    between atoms: C_23  and  N_31 
REMARK   12  A    between atoms: CB_25  and  CG_26 
REMARK   13  A    between atoms: CG_26  and  CD_27 
REMARK   14  A    between atoms: N_31  and  CA_32 
REMARK   15  A    between atoms: CA_32  and  C_33 
REMARK   16  A    between atoms: CA_32  and  CB_35 
REMARK   17  A    between atoms: CB_35  and  CG_36 
ROOT
ATOM      1  N   LEU A   1      48.149  47.957  45.505  1.00  0.00    -0.058 N 
ATOM      2  H1  LEU A   1      48.554  47.741  46.392  1.00 99.99     0.276 HD
ATOM      3  H2  LEU A   1      48.613  47.488  44.752  1.00 99.99     0.276 HD
ATOM      4  H3  LEU A   1      48.240  48.921  45.273  1.00 99.99     0.276 HD
ENDROOT
BRANCH   1   5
ATOM      5  CA  LEU A   1      46.713  47.613  45.450  1.00  0.00     0.255 C 
BRANCH   5   6
ATOM      6  C   LEU A   1      46.006  48.617  44.497  1.00  0.00     0.259 C 
ATOM      7  O   LEU A   1      44.890  49.033  44.777  1.00  0.00    -0.271 OA
ATOM      8  N   LEU A   2      46.691  49.078  43.451  1.00  0.00    -0.338 N 
ATOM      9  H   LEU A   2      47.561  48.680  43.143  1.00 99.99     0.164 HD
BRANCH   8  10
ATOM     10  CA  LEU A   2      46.140  50.016  42.466  1.00  0.00     0.159 C 
BRANCH  10  11
ATOM     11  C   LEU A   2      45.824  49.206  41.187  1.00  0.00     0.251 C 
ATOM     12  O   LEU A   2      44.735  48.660  41.073  1.00  0.00    -0.271 OA
ATOM     13  N   GLU A   3      46.730  49.226  40.214  1.00  0.00    -0.338 N 
ATOM     14  H   GLU A   3      47.638  49.642  40.330  1.00 99.99     0.164 HD
BRANCH  13  15
ATOM     15  CA  GLU A   3      46.602  48.469  38.957  1.00  0.00     0.160 C 
BRANCH  15  16
ATOM     16  C   GLU A   3      48.015  47.982  38.566  1.00  0.00     0.251 C 
ATOM     17  O   GLU A   3      48.974  48.274  39.268  1.00  0.00    -0.271 OA
ATOM     18  N   LEU A   4      48.065  47.152  37.539  1.00  0.00    -0.336 N 
ATOM     19  H   LEU A   4      47.250  46.856  37.033  1.00 99.99     0.164 HD
BRANCH  18  20
ATOM     20  CA  LEU A   4      49.332  46.621  37.000  1.00  0.00     0.168 C 
BRANCH  20  21
ATOM     21  C   LEU A   4      49.849  47.434  35.761  1.00  0.00     0.206 C 
ATOM     22  O   LEU A   4      50.492  46.731  34.914  1.00  0.00    -0.646 OA
ATOM     23  OXT LEU A   4      49.557  48.596  35.625  1.00  0.00    -0.646 OA
ENDBRANCH  20  21
BRANCH  20  24
ATOM     24  CB  LEU A   4      49.209  45.135  36.640  1.00  0.00     0.033 C 
BRANCH  24  25
ATOM     25  CG  LEU A   4      47.726  44.910  36.336  1.00  0.00     0.002 C 
ATOM     26  CD1 LEU A   4      47.369  44.951  34.848  1.00  0.00     0.000 C 
ATOM     27  CD2 LEU A   4      47.098  43.835  37.219  1.00  0.00     0.000 C 
ENDBRANCH  24  25
ENDBRANCH  20  24
ENDBRANCH  18  20
ENDBRANCH  15  16
BRANCH  15  28
ATOM     28  CB  GLU A   3      46.028  49.366  37.860  1.00  0.00     0.043 C 
BRANCH  28  29
ATOM     29  CG  GLU A   3      46.861  50.633  37.741  1.00  0.00     0.100 C 
BRANCH  29  30
ATOM     30  CD  GLU A   3      46.009  51.891  38.039  1.00  0.00     0.185 C 
ATOM     31  OE2 GLU A   3      45.018  51.685  38.819  1.00  0.00    -0.647 OA
ATOM     32  OE1 GLU A   3      46.348  52.936  37.553  1.00  0.00    -0.647 OA
ENDBRANCH  29  30
ENDBRANCH  28  29
ENDBRANCH  15  28
ENDBRANCH  13  15
ENDBRANCH  10  11
BRANCH  10  33
ATOM     33  CB  LEU A   2      47.124  51.156  42.169  1.00  0.00     0.032 C 
BRANCH  33  34
ATOM     34  CG  LEU A   2      46.242  52.383  41.937  1.00  0.00     0.002 C 
ATOM     35  CD2 LEU A   2      47.006  53.696  42.095  1.00  0.00     0.000 C 
ATOM     36  CD1 LEU A   2      44.832  52.269  42.519  1.00  0.00     0.000 C 
ENDBRANCH  33  34
ENDBRANCH  10  33
ENDBRANCH   8  10
ENDBRANCH   5   6
BRANCH   5  37
ATOM     37  CB  LEU A   1      46.055  47.610  46.842  1.00  0.00     0.040 C 
BRANCH  37  38
ATOM     38  CG  LEU A   1      45.080  46.419  46.849  1.00  0.00     0.002 C 
ATOM     39  CD2 LEU A   1      44.831  45.801  48.226  1.00  0.00     0.000 C 
ATOM     40  CD1 LEU A   1      45.230  45.472  45.659  1.00  0.00     0.000 C 
ENDBRANCH  37  38
ENDBRANCH   5  37
ENDBRANCH   1   5
TORSDOF 17
ENDMDL
MODEL 9
REMARK VINA RESULT:      -4.1      3.825      7.570
REMARK  17 active torsions:
REMARK  status: ('A' for Active; 'I' for Inactive)
REMARK    1  A    between atoms: N_1  and  CA_2 
REMARK    2  A    between atoms: CA_2  and  C_3 
REMARK    3  A    between atoms: CA_2  and  CB_5 
REMARK       I    between atoms: C_3  and  N_12 
REMARK    4  A    between atoms: CB_5  and  CG_6 
REMARK    5  A    between atoms: N_12  and  CA_13 
REMARK    6  A    between atoms: CA_13  and  C_14 
REMARK    7  A    between atoms: CA_13  and  CB_16 
REMARK       I    between atoms: C_14  and  N_21 
REMARK    8  A    between atoms: CB_16  and  CG_17 
REMARK    9  A    between atoms: N_21  and  CA_22 
REMARK   10  A    between atoms: CA_22  and  C_23 
REMARK   11  A    between atoms: CA_22  and  CB_25 
REMARK       I    between atoms: C_23  and  N_31 
REMARK   12  A    between atoms: CB_25  and  CG_26 
REMARK   13  A    between atoms: CG_26  and  CD_27 
REMARK   14  A    between atoms: N_31  and  CA_32 
REMARK   15  A    between atoms: CA_32  and  C_33 
REMARK   16  A    between atoms: CA_32  and  CB_35 
REMARK   17  A    between atoms: CB_35  and  CG_36 
ROOT
ATOM      1  N   LEU A   1      56.558  40.037  43.809  1.00  0.00    -0.058 N 
ATOM      2  H1  LEU A   1      55.926  39.767  44.535  1.00 99.99     0.276 HD
ATOM      3  H2  LEU A   1      56.854  40.989  43.899  1.00 99.99     0.276 HD
ATOM      4  H3  LEU A   1      56.134  40.006  42.909  1.00 99.99     0.276 HD
ENDROOT
BRANCH   1   5
ATOM      5  CA  LEU A   1      57.761  39.180  43.771  1.00  0.00     0.255 C 
BRANCH   5   6
ATOM      6  C   LEU A   1      59.015  40.095  43.842  1.00  0.00     0.259 C 
ATOM      7  O   LEU A   1      60.118  39.631  43.586  1.00  0.00    -0.271 OA
ATOM      8  N   LEU A   2      58.832  41.394  44.075  1.00  0.00    -0.338 N 
ATOM      9  H   LEU A   2      57.958  41.780  44.388  1.00 99.99     0.164 HD
BRANCH   8  10
ATOM     10  CA  LEU A   2      59.927  42.365  44.182  1.00  0.00     0.159 C 
BRANCH  10  11
ATOM     11  C   LEU A   2      59.687  43.190  45.468  1.00  0.00     0.251 C 
ATOM     12  O   LEU A   2      59.111  44.266  45.396  1.00  0.00    -0.271 OA
ATOM     13  N   GLU A   3      60.039  42.632  46.623  1.00  0.00    -0.338 N 
ATOM     14  H   GLU A   3      60.548  41.766  46.672  1.00 99.99     0.164 HD
BRANCH  13  15
ATOM     15  CA  GLU A   3      59.921  43.304  47.928  1.00  0.00     0.160 C 
BRANCH  15  16
ATOM     16  C   GLU A   3      61.293  43.190  48.630  1.00  0.00     0.251 C 
ATOM     17  O   GLU A   3      61.681  42.102  49.033  1.00  0.00    -0.271 OA
ATOM     18  N   LEU A   4      62.024  44.291  48.627  1.00  0.00    -0.336 N 
ATOM     19  H   LEU A   4      61.720  45.151  48.209  1.00 99.99     0.164 HD
BRANCH  18  20
ATOM     20  CA  LEU A   4      63.341  44.379  49.288  1.00  0.00     0.168 C 
BRANCH  20  21
ATOM     21  C   LEU A   4      63.370  45.450  50.435  1.00  0.00     0.206 C 
ATOM     22  O   LEU A   4      62.269  45.557  51.069  1.00  0.00    -0.646 OA
ATOM     23  OXT LEU A   4      64.393  46.026  50.711  1.00  0.00    -0.646 OA
ENDBRANCH  20  21
BRANCH  20  24
ATOM     24  CB  LEU A   4      64.459  44.661  48.276  1.00  0.00     0.033 C 
BRANCH  24  25
ATOM     25  CG  LEU A   4      65.320  43.396  48.256  1.00  0.00     0.002 C 
ATOM     26  CD1 LEU A   4      65.040  42.455  47.082  1.00  0.00     0.000 C 
ATOM     27  CD2 LEU A   4      66.767  43.659  48.666  1.00  0.00     0.000 C 
ENDBRANCH  24  25
ENDBRANCH  20  24
ENDBRANCH  18  20
ENDBRANCH  15  16
BRANCH  15  28
ATOM     28  CB  GLU A   3      58.837  42.631  48.771  1.00  0.00     0.043 C 
BRANCH  28  29
ATOM     29  CG  GLU A   3      57.467  43.141  48.352  1.00  0.00     0.100 C 
BRANCH  29  30
ATOM     30  CD  GLU A   3      56.624  42.011  47.711  1.00  0.00     0.185 C 
ATOM     31  OE2 GLU A   3      57.172  41.449  46.703  1.00  0.00    -0.647 OA
ATOM     32  OE1 GLU A   3      55.565  41.740  48.210  1.00  0.00    -0.647 OA
ENDBRANCH  29  30
ENDBRANCH  28  29
ENDBRANCH  15  28
ENDBRANCH  13  15
ENDBRANCH  10  11
BRANCH  10  33
ATOM     33  CB  LEU A   2      59.990  43.274  42.947  1.00  0.00     0.032 C 
BRANCH  33  34
ATOM     34  CG  LEU A   2      61.250  42.832  42.200  1.00  0.00     0.002 C 
ATOM     35  CD2 LEU A   2      60.940  41.945  40.997  1.00  0.00     0.000 C 
ATOM     36  CD1 LEU A   2      62.429  42.472  43.105  1.00  0.00     0.000 C 
ENDBRANCH  33  34
ENDBRANCH  10  33
ENDBRANCH   8  10
ENDBRANCH   5   6
BRANCH   5  37
ATOM     37  CB  LEU A   1      57.801  38.275  42.526  1.00  0.00     0.040 C 
BRANCH  37  38
ATOM     38  CG  LEU A   1      57.015  39.020  41.433  1.00  0.00     0.002 C 
ATOM     39  CD2 LEU A   1      55.842  38.237  40.839  1.00  0.00     0.000 C 
ATOM     40  CD1 LEU A   1      57.881  39.839  40.478  1.00  0.00     0.000 C 
ENDBRANCH  37  38
ENDBRANCH   5  37
ENDBRANCH   1   5
TORSDOF 17
ENDMDL
