MODEL 1
REMARK VINA RESULT:      -4.3      0.000      0.000
REMARK WARNING: 32 MAX_TORS EXCEEDED!!!
REMARK  34 active torsions:
REMARK  status: ('A' for Active; 'I' for Inactive)
REMARK    1  A    between atoms: N_1  and  CA_2 
REMARK    2  A    between atoms: CA_2  and  C_3 
REMARK       I    between atoms: C_3  and  N_8 
REMARK    3  A    between atoms: N_8  and  CA_9 
REMARK    4  A    between atoms: CA_9  and  C_10 
REMARK    5  A    between atoms: CA_9  and  CB_12 
REMARK       I    between atoms: C_10  and  N_17 
REMARK    6  A    between atoms: CB_12  and  CG_13 
REMARK    7  A    between atoms: N_17  and  CA_18 
REMARK    8  A    between atoms: CA_18  and  C_19 
REMARK    9  A    between atoms: CA_18  and  CB_21 
REMARK       I    between atoms: C_19  and  N_26 
REMARK   10  A    between atoms: CB_21  and  CG_22 
REMARK   11  A    between atoms: N_26  and  CA_27 
REMARK   12  A    between atoms: CA_27  and  C_28 
REMARK   13  A    between atoms: CA_27  and  CB_30 
REMARK       I    between atoms: C_28  and  N_39 
REMARK   14  A    between atoms: CB_30  and  CG_31 
REMARK   15  A    between atoms: CG_31  and  CD_32 
REMARK   16  A    between atoms: CD_32  and  CE_33 
REMARK   17  A    between atoms: CE_33  and  NZ_34 
REMARK   18  A    between atoms: N_39  and  CA_40 
REMARK   19  A    between atoms: CA_40  and  C_41 
REMARK   20  A    between atoms: CA_40  and  CB_43 
REMARK       I    between atoms: C_41  and  N_56 
REMARK   21  A    between atoms: CB_43  and  CG_44 
REMARK   22  A    between atoms: CG_44  and  CD_45 
REMARK   23  A    between atoms: CD_45  and  NE_46 
REMARK       I    between atoms: NE_46  and  CZ_47 
REMARK       I    between atoms: CZ_47  and  NH1_48 
REMARK   24  A    between atoms: N_56  and  CA_57 
REMARK   25  A    between atoms: CA_57  and  C_58 
REMARK   26  A    between atoms: CA_57  and  CB_60 
REMARK       I    between atoms: C_58  and  N_65 
REMARK   27  A    between atoms: CB_60  and  CG1_61 
REMARK   28  A    between atoms: N_65  and  CA_66 
REMARK   29  A    between atoms: CA_66  and  CB_69 
REMARK   30  A    between atoms: CA_66  and  C_67 
REMARK   31  A    between atoms: CB_69  and  CG_70 
REMARK   32  A    between atoms: CG_70  and  CD_71 
REMARK   33  A    between atoms: CD_71  and  CE_72 
REMARK   34  A    between atoms: CE_72  and  NZ_73 
ROOT
ATOM      1  N   GLY     1      67.750  42.340  45.947  1.00  0.00    -0.055 N 
ATOM      2  H1  GLY     1      66.910  41.808  46.057  1.00 99.99     0.276 HD
ATOM      3  H2  GLY     1      68.139  42.183  45.055  1.00 99.99     0.276 HD
ATOM      4  H3  GLY     1      68.423  42.006  46.589  1.00 99.99     0.276 HD
ENDROOT
BRANCH   1   5
ATOM      5  CA  GLY     1      67.434  43.764  46.164  1.00  0.00     0.292 C 
BRANCH   5   6
ATOM      6  C   GLY     1      65.906  43.959  46.179  1.00  0.00     0.261 C 
ATOM      7  N   LEU     2      65.201  42.964  45.632  1.00  0.00    -0.337 N 
ATOM      8  H   LEU     2      65.670  42.176  45.236  1.00 99.99     0.164 HD
ATOM      9  O   GLY     1      65.416  44.862  46.860  1.00  0.00    -0.270 OA
BRANCH   7  10
ATOM     10  CA  LEU     2      63.726  42.878  45.523  1.00  0.00     0.159 C 
BRANCH  10  11
ATOM     11  C   LEU     2      62.885  42.520  46.762  1.00  0.00     0.251 C 
ATOM     12  N   LEU     3      62.491  43.519  47.559  1.00  0.00    -0.338 N 
ATOM     13  H   LEU     3      62.835  44.447  47.433  1.00 99.99     0.164 HD
ATOM     14  O   LEU     2      62.638  41.338  46.985  1.00  0.00    -0.271 OA
BRANCH  12  15
ATOM     15  CA  LEU     3      61.592  43.361  48.727  1.00  0.00     0.159 C 
BRANCH  15  16
ATOM     16  C   LEU     3      60.093  43.231  48.390  1.00  0.00     0.251 C 
ATOM     17  O   LEU     3      59.488  42.265  48.849  1.00  0.00    -0.271 OA
ATOM     18  N   LYS     4      59.666  43.942  47.341  1.00  0.00    -0.338 N 
ATOM     19  H   LYS     4      60.308  44.490  46.802  1.00 99.99     0.164 HD
BRANCH  18  20
ATOM     20  CA  LYS     4      58.272  43.984  46.832  1.00  0.00     0.159 C 
BRANCH  20  21
ATOM     21  C   LYS     4      57.127  44.030  47.874  1.00  0.00     0.251 C 
ATOM     22  O   LYS     4      56.562  45.088  48.145  1.00  0.00    -0.271 OA
ATOM     23  N   ARG     5      56.718  42.857  48.354  1.00  0.00    -0.338 N 
ATOM     24  H   ARG     5      57.042  42.003  47.946  1.00 99.99     0.164 HD
BRANCH  23  25
ATOM     25  CA  ARG     5      55.706  42.658  49.416  1.00  0.00     0.159 C 
BRANCH  25  26
ATOM     26  C   ARG     5      56.309  42.808  50.840  1.00  0.00     0.251 C 
ATOM     27  O   ARG     5      55.860  43.615  51.650  1.00  0.00    -0.271 OA
ATOM     28  N   ILE     6      57.278  41.951  51.158  1.00  0.00    -0.338 N 
ATOM     29  H   ILE     6      57.533  41.226  50.518  1.00 99.99     0.164 HD
BRANCH  28  30
ATOM     30  CA  ILE     6      57.989  41.898  52.460  1.00  0.00     0.159 C 
BRANCH  30  31
ATOM     31  C   ILE     6      59.506  42.134  52.257  1.00  0.00     0.251 C 
ATOM     32  O   ILE     6      60.041  43.184  52.605  1.00  0.00    -0.271 OA
ATOM     33  N   LYS     7      60.185  41.072  51.826  1.00  0.00    -0.336 N 
ATOM     34  H   LYS     7      59.713  40.200  51.675  1.00 99.99     0.164 HD
BRANCH  33  35
ATOM     35  CA  LYS     7      61.626  41.015  51.492  1.00  0.00     0.168 C 
BRANCH  35  36
ATOM     36  CB  LYS     7      62.437  40.465  52.672  1.00  0.00     0.033 C 
BRANCH  36  37
ATOM     37  CG  LYS     7      61.645  39.752  53.767  1.00  0.00     0.004 C 
BRANCH  37  38
ATOM     38  CD  LYS     7      61.731  40.603  55.032  1.00  0.00     0.032 C 
BRANCH  38  39
ATOM     39  CE  LYS     7      62.921  41.560  55.011  1.00  0.00     0.206 C 
BRANCH  39  40
ATOM     40  NZ  LYS     7      63.964  41.052  55.910  1.00  0.00    -0.064 N 
ATOM     41  HZ3 LYS     7      64.777  41.629  55.827  1.00 99.99     0.275 HD
ATOM     42  HZ1 LYS     7      63.635  41.074  56.854  1.00 99.99     0.275 HD
ATOM     43  HZ2 LYS     7      64.197  40.114  55.656  1.00 99.99     0.275 HD
ENDBRANCH  39  40
ENDBRANCH  38  39
ENDBRANCH  37  38
ENDBRANCH  36  37
ENDBRANCH  35  36
BRANCH  35  44
ATOM     44  C   LYS     7      61.812  39.997  50.354  1.00  0.00     0.206 C 
ATOM     45  OXT LYS     7      60.763  39.422  49.974  1.00 99.99    -0.646 OA
ATOM     46  O   LYS     7      62.951  39.855  49.860  1.00 99.99    -0.646 OA
ENDBRANCH  35  44
ENDBRANCH  33  35
ENDBRANCH  30  31
BRANCH  30  47
ATOM     47  CB  ILE     6      57.709  40.535  53.143  1.00  0.00     0.029 C 
ATOM     48  CG2 ILE     6      58.004  40.599  54.651  1.00  0.00     0.002 C 
BRANCH  47  49
ATOM     49  CG1 ILE     6      56.252  40.083  52.917  1.00  0.00     0.002 C 
ATOM     50  CD  ILE     6      55.252  40.613  53.954  1.00  0.00     0.000 C 
ENDBRANCH  47  49
ENDBRANCH  30  47
ENDBRANCH  28  30
ENDBRANCH  25  26
BRANCH  25  51
ATOM     51  CB  ARG     5      55.143  41.247  49.195  1.00  0.00     0.034 C 
BRANCH  51  52
ATOM     52  CG  ARG     5      55.802  40.491  48.037  1.00  0.00     0.027 C 
BRANCH  52  53
ATOM     53  CD  ARG     5      56.750  39.387  48.529  1.00  0.00     0.116 C 
BRANCH  53  54
ATOM     54  NE  ARG     5      58.169  39.668  48.215  1.00  0.00    -0.212 N 
ATOM     55  CZ  ARG     5      58.843  39.400  47.089  1.00  0.00     0.666 C 
ATOM     56  NH1 ARG     5      58.293  38.784  46.051  1.00  0.00    -0.235 N 
ATOM     57  NH2 ARG     5      60.098  39.809  46.962  1.00  0.00    -0.235 N 
ATOM     58 1HH1 ARG     5      58.829  38.592  45.231  1.00 99.99     0.174 HD
ATOM     59 2HH1 ARG     5      57.348  38.471  46.114  1.00 99.99     0.174 HD
ATOM     60 1HH2 ARG     5      60.591  39.602  46.120  1.00 99.99     0.174 HD
ATOM     61 2HH2 ARG     5      60.541  40.325  47.689  1.00 99.99     0.174 HD
ATOM     62  HE  ARG     5      58.677  40.092  48.959  1.00 99.99     0.178 HD
ENDBRANCH  53  54
ENDBRANCH  52  53
ENDBRANCH  51  52
ENDBRANCH  25  51
ENDBRANCH  23  25
ENDBRANCH  20  21
BRANCH  20  63
ATOM     63  CB  LYS     4      58.039  42.779  45.908  1.00  0.00     0.032 C 
BRANCH  63  64
ATOM     64  CG  LYS     4      58.476  42.994  44.457  1.00  0.00     0.004 C 
BRANCH  64  65
ATOM     65  CD  LYS     4      59.749  42.186  44.190  1.00  0.00     0.032 C 
BRANCH  65  66
ATOM     66  CE  LYS     4      59.465  40.917  43.384  1.00  0.00     0.206 C 
BRANCH  66  67
ATOM     67  NZ  LYS     4      60.539  40.652  42.413  1.00  0.00    -0.064 N 
ATOM     68  HZ1 LYS     4      61.407  40.544  42.898  1.00 99.99     0.275 HD
ATOM     69  HZ2 LYS     4      60.338  39.818  41.900  1.00 99.99     0.275 HD
ATOM     70  HZ3 LYS     4      60.610  41.422  41.779  1.00 99.99     0.275 HD
ENDBRANCH  66  67
ENDBRANCH  65  66
ENDBRANCH  64  65
ENDBRANCH  63  64
ENDBRANCH  20  63
ENDBRANCH  18  20
ENDBRANCH  15  16
BRANCH  15  71
ATOM     71  CB  LEU     3      61.831  44.490  49.742  1.00  0.00     0.032 C 
BRANCH  71  72
ATOM     72  CG  LEU     3      62.939  45.464  49.317  1.00  0.00     0.002 C 
ATOM     73  CD2 LEU     3      64.180  45.333  50.209  1.00  0.00     0.000 C 
ATOM     74  CD1 LEU     3      62.419  46.901  49.374  1.00  0.00     0.000 C 
ENDBRANCH  71  72
ENDBRANCH  15  71
ENDBRANCH  12  15
ENDBRANCH  10  11
BRANCH  10  75
ATOM     75  CB  LEU     2      63.334  42.029  44.306  1.00  0.00     0.032 C 
BRANCH  75  76
ATOM     76  CG  LEU     2      64.561  41.463  43.575  1.00  0.00     0.002 C 
ATOM     77  CD1 LEU     2      64.422  39.947  43.429  1.00  0.00     0.000 C 
ATOM     78  CD2 LEU     2      64.744  42.102  42.193  1.00  0.00     0.000 C 
ENDBRANCH  75  76
ENDBRANCH  10  75
ENDBRANCH   7  10
ENDBRANCH   5   6
ENDBRANCH   1   5
TORSDOF 34
ENDMDL
MODEL 2
REMARK VINA RESULT:      -4.3      2.280      8.857
REMARK WARNING: 32 MAX_TORS EXCEEDED!!!
REMARK  34 active torsions:
REMARK  status: ('A' for Active; 'I' for Inactive)
REMARK    1  A    between atoms: N_1  and  CA_2 
REMARK    2  A    between atoms: CA_2  and  C_3 
REMARK       I    between atoms: C_3  and  N_8 
REMARK    3  A    between atoms: N_8  and  CA_9 
REMARK    4  A    between atoms: CA_9  and  C_10 
REMARK    5  A    between atoms: CA_9  and  CB_12 
REMARK       I    between atoms: C_10  and  N_17 
REMARK    6  A    between atoms: CB_12  and  CG_13 
REMARK    7  A    between atoms: N_17  and  CA_18 
REMARK    8  A    between atoms: CA_18  and  C_19 
REMARK    9  A    between atoms: CA_18  and  CB_21 
REMARK       I    between atoms: C_19  and  N_26 
REMARK   10  A    between atoms: CB_21  and  CG_22 
REMARK   11  A    between atoms: N_26  and  CA_27 
REMARK   12  A    between atoms: CA_27  and  C_28 
REMARK   13  A    between atoms: CA_27  and  CB_30 
REMARK       I    between atoms: C_28  and  N_39 
REMARK   14  A    between atoms: CB_30  and  CG_31 
REMARK   15  A    between atoms: CG_31  and  CD_32 
REMARK   16  A    between atoms: CD_32  and  CE_33 
REMARK   17  A    between atoms: CE_33  and  NZ_34 
REMARK   18  A    between atoms: N_39  and  CA_40 
REMARK   19  A    between atoms: CA_40  and  C_41 
REMARK   20  A    between atoms: CA_40  and  CB_43 
REMARK       I    between atoms: C_41  and  N_56 
REMARK   21  A    between atoms: CB_43  and  CG_44 
REMARK   22  A    between atoms: CG_44  and  CD_45 
REMARK   23  A    between atoms: CD_45  and  NE_46 
REMARK       I    between atoms: NE_46  and  CZ_47 
REMARK       I    between atoms: CZ_47  and  NH1_48 
REMARK   24  A    between atoms: N_56  and  CA_57 
REMARK   25  A    between atoms: CA_57  and  C_58 
REMARK   26  A    between atoms: CA_57  and  CB_60 
REMARK       I    between atoms: C_58  and  N_65 
REMARK   27  A    between atoms: CB_60  and  CG1_61 
REMARK   28  A    between atoms: N_65  and  CA_66 
REMARK   29  A    between atoms: CA_66  and  CB_69 
REMARK   30  A    between atoms: CA_66  and  C_67 
REMARK   31  A    between atoms: CB_69  and  CG_70 
REMARK   32  A    between atoms: CG_70  and  CD_71 
REMARK   33  A    between atoms: CD_71  and  CE_72 
REMARK   34  A    between atoms: CE_72  and  NZ_73 
ROOT
ATOM      1  N   GLY     1      59.126  43.610  46.981  1.00  0.00    -0.055 N 
ATOM      2  H1  GLY     1      59.655  43.641  46.132  1.00 99.99     0.276 HD
ATOM      3  H2  GLY     1      59.293  44.420  47.517  1.00 99.99     0.276 HD
ATOM      4  H3  GLY     1      59.455  42.858  47.532  1.00 99.99     0.276 HD
ENDROOT
BRANCH   1   5
ATOM      5  CA  GLY     1      57.700  43.465  46.637  1.00  0.00     0.292 C 
BRANCH   5   6
ATOM      6  C   GLY     1      56.832  43.890  47.836  1.00  0.00     0.261 C 
ATOM      7  N   LEU     2      56.572  42.922  48.720  1.00  0.00    -0.337 N 
ATOM      8  H   LEU     2      56.919  41.999  48.569  1.00 99.99     0.164 HD
ATOM      9  O   GLY     1      56.618  45.087  48.036  1.00  0.00    -0.270 OA
BRANCH   7  10
ATOM     10  CA  LEU     2      55.781  43.050  49.968  1.00  0.00     0.159 C 
BRANCH  10  11
ATOM     11  C   LEU     2      56.449  42.787  51.329  1.00  0.00     0.251 C 
ATOM     12  N   LEU     3      57.674  42.248  51.330  1.00  0.00    -0.338 N 
ATOM     13  H   LEU     3      58.088  41.907  50.490  1.00 99.99     0.164 HD
ATOM     14  O   LEU     2      55.825  43.053  52.352  1.00  0.00    -0.271 OA
BRANCH  12  15
ATOM     15  CA  LEU     3      58.498  42.031  52.543  1.00  0.00     0.159 C 
BRANCH  15  16
ATOM     16  C   LEU     3      60.000  42.337  52.379  1.00  0.00     0.251 C 
ATOM     17  O   LEU     3      60.406  43.429  52.772  1.00  0.00    -0.271 OA
ATOM     18  N   LYS     4      60.660  41.575  51.501  1.00  0.00    -0.338 N 
ATOM     19  H   LYS     4      60.177  40.879  50.967  1.00 99.99     0.164 HD
BRANCH  18  20
ATOM     20  CA  LYS     4      62.106  41.676  51.179  1.00  0.00     0.159 C 
BRANCH  20  21
ATOM     21  C   LYS     4      62.520  42.614  50.018  1.00  0.00     0.251 C 
ATOM     22  O   LYS     4      62.370  43.832  50.108  1.00  0.00    -0.271 OA
ATOM     23  N   ARG     5      63.149  42.043  48.993  1.00  0.00    -0.338 N 
ATOM     24  H   ARG     5      63.455  41.093  49.054  1.00 99.99     0.164 HD
BRANCH  23  25
ATOM     25  CA  ARG     5      63.559  42.718  47.741  1.00  0.00     0.159 C 
BRANCH  25  26
ATOM     26  C   ARG     5      62.641  42.347  46.543  1.00  0.00     0.251 C 
ATOM     27  O   ARG     5      62.155  43.206  45.812  1.00  0.00    -0.271 OA
ATOM     28  N   ILE     6      62.486  41.045  46.306  1.00  0.00    -0.338 N 
ATOM     29  H   ILE     6      62.996  40.375  46.846  1.00 99.99     0.164 HD
BRANCH  28  30
ATOM     30  CA  ILE     6      61.670  40.459  45.214  1.00  0.00     0.159 C 
BRANCH  30  31
ATOM     31  C   ILE     6      60.161  40.589  45.538  1.00  0.00     0.251 C 
ATOM     32  O   ILE     6      59.386  41.145  44.763  1.00  0.00    -0.271 OA
ATOM     33  N   LYS     7      59.764  39.931  46.626  1.00  0.00    -0.336 N 
ATOM     34  H   LYS     7      60.422  39.390  47.155  1.00 99.99     0.164 HD
BRANCH  33  35
ATOM     35  CA  LYS     7      58.403  39.917  47.209  1.00  0.00     0.168 C 
BRANCH  35  36
ATOM     36  CB  LYS     7      57.838  38.492  47.240  1.00  0.00     0.033 C 
BRANCH  36  37
ATOM     37  CG  LYS     7      57.595  37.828  45.884  1.00  0.00     0.004 C 
BRANCH  37  38
ATOM     38  CD  LYS     7      56.317  38.422  45.298  1.00  0.00     0.032 C 
BRANCH  38  39
ATOM     39  CE  LYS     7      56.559  39.126  43.964  1.00  0.00     0.206 C 
BRANCH  39  40
ATOM     40  NZ  LYS     7      56.502  40.579  44.168  1.00  0.00    -0.064 N 
ATOM     41  HZ3 LYS     7      56.470  41.033  43.277  1.00 99.99     0.275 HD
ATOM     42  HZ1 LYS     7      55.683  40.814  44.692  1.00 99.99     0.275 HD
ATOM     43  HZ2 LYS     7      57.317  40.879  44.663  1.00 99.99     0.275 HD
ENDBRANCH  39  40
ENDBRANCH  38  39
ENDBRANCH  37  38
ENDBRANCH  36  37
ENDBRANCH  35  36
BRANCH  35  44
ATOM     44  C   LYS     7      58.509  40.351  48.681  1.00  0.00     0.206 C 
ATOM     45  OXT LYS     7      59.325  41.277  48.907  1.00 99.99    -0.646 OA
ATOM     46  O   LYS     7      57.759  39.807  49.519  1.00 99.99    -0.646 OA
ENDBRANCH  35  44
ENDBRANCH  33  35
ENDBRANCH  30  31
BRANCH  30  47
ATOM     47  CB  ILE     6      62.083  38.981  45.000  1.00  0.00     0.029 C 
ATOM     48  CG2 ILE     6      62.316  38.680  43.509  1.00  0.00     0.002 C 
BRANCH  47  49
ATOM     49  CG1 ILE     6      63.351  38.631  45.804  1.00  0.00     0.002 C 
ATOM     50  CD  ILE     6      64.615  38.445  44.953  1.00  0.00     0.000 C 
ENDBRANCH  47  49
ENDBRANCH  30  47
ENDBRANCH  28  30
ENDBRANCH  25  26
BRANCH  25  51
ATOM     51  CB  ARG     5      65.008  42.279  47.488  1.00  0.00     0.034 C 
BRANCH  51  52
ATOM     52  CG  ARG     5      65.976  42.654  48.615  1.00  0.00     0.027 C 
BRANCH  52  53
ATOM     53  CD  ARG     5      66.191  44.170  48.715  1.00  0.00     0.116 C 
BRANCH  53  54
ATOM     54  NE  ARG     5      65.276  44.817  49.682  1.00  0.00    -0.212 N 
ATOM     55  CZ  ARG     5      65.041  46.123  49.862  1.00  0.00     0.666 C 
ATOM     56  NH1 ARG     5      65.659  47.068  49.166  1.00  0.00    -0.235 N 
ATOM     57  NH2 ARG     5      64.114  46.510  50.728  1.00  0.00    -0.235 N 
ATOM     58 1HH1 ARG     5      65.466  48.033  49.335  1.00 99.99     0.174 HD
ATOM     59 2HH1 ARG     5      66.357  46.807  48.503  1.00 99.99     0.174 HD
ATOM     60 1HH2 ARG     5      63.948  47.486  50.855  1.00 99.99     0.174 HD
ATOM     61 2HH2 ARG     5      63.580  45.840  51.235  1.00 99.99     0.174 HD
ATOM     62  HE  ARG     5      64.799  44.182  50.283  1.00 99.99     0.178 HD
ENDBRANCH  53  54
ENDBRANCH  52  53
ENDBRANCH  51  52
ENDBRANCH  25  51
ENDBRANCH  23  25
ENDBRANCH  20  21
BRANCH  20  63
ATOM     63  CB  LYS     4      62.655  40.271  50.888  1.00  0.00     0.032 C 
BRANCH  63  64
ATOM     64  CG  LYS     4      63.760  39.808  51.840  1.00  0.00     0.004 C 
BRANCH  64  65
ATOM     65  CD  LYS     4      64.698  38.853  51.096  1.00  0.00     0.032 C 
BRANCH  65  66
ATOM     66  CE  LYS     4      64.382  38.787  49.601  1.00  0.00     0.206 C 
BRANCH  66  67
ATOM     67  NZ  LYS     4      65.602  38.945  48.793  1.00  0.00    -0.064 N 
ATOM     68  HZ1 LYS     4      66.170  39.670  49.184  1.00 99.99     0.275 HD
ATOM     69  HZ2 LYS     4      66.117  38.088  48.779  1.00 99.99     0.275 HD
ATOM     70  HZ3 LYS     4      65.351  39.195  47.857  1.00 99.99     0.275 HD
ENDBRANCH  66  67
ENDBRANCH  65  66
ENDBRANCH  64  65
ENDBRANCH  63  64
ENDBRANCH  20  63
ENDBRANCH  18  20
ENDBRANCH  15  16
BRANCH  15  71
ATOM     71  CB  LEU     3      58.282  40.611  53.089  1.00  0.00     0.032 C 
BRANCH  71  72
ATOM     72  CG  LEU     3      57.421  40.574  54.359  1.00  0.00     0.002 C 
ATOM     73  CD2 LEU     3      58.107  39.789  55.484  1.00  0.00     0.000 C 
ATOM     74  CD1 LEU     3      56.064  39.941  54.049  1.00  0.00     0.000 C 
ENDBRANCH  71  72
ENDBRANCH  15  71
ENDBRANCH  12  15
ENDBRANCH  10  11
BRANCH  10  75
ATOM     75  CB  LEU     2      54.453  42.292  49.831  1.00  0.00     0.032 C 
BRANCH  75  76
ATOM     76  CG  LEU     2      54.663  40.782  49.644  1.00  0.00     0.002 C 
ATOM     77  CD1 LEU     2      54.025  40.024  50.808  1.00  0.00     0.000 C 
ATOM     78  CD2 LEU     2      54.075  40.286  48.318  1.00  0.00     0.000 C 
ENDBRANCH  75  76
ENDBRANCH  10  75
ENDBRANCH   7  10
ENDBRANCH   5   6
ENDBRANCH   1   5
TORSDOF 34
ENDMDL
MODEL 3
REMARK VINA RESULT:      -4.2      2.411      8.864
REMARK WARNING: 32 MAX_TORS EXCEEDED!!!
REMARK  34 active torsions:
REMARK  status: ('A' for Active; 'I' for Inactive)
REMARK    1  A    between atoms: N_1  and  CA_2 
REMARK    2  A    between atoms: CA_2  and  C_3 
REMARK       I    between atoms: C_3  and  N_8 
REMARK    3  A    between atoms: N_8  and  CA_9 
REMARK    4  A    between atoms: CA_9  and  C_10 
REMARK    5  A    between atoms: CA_9  and  CB_12 
REMARK       I    between atoms: C_10  and  N_17 
REMARK    6  A    between atoms: CB_12  and  CG_13 
REMARK    7  A    between atoms: N_17  and  CA_18 
REMARK    8  A    between atoms: CA_18  and  C_19 
REMARK    9  A    between atoms: CA_18  and  CB_21 
REMARK       I    between atoms: C_19  and  N_26 
REMARK   10  A    between atoms: CB_21  and  CG_22 
REMARK   11  A    between atoms: N_26  and  CA_27 
REMARK   12  A    between atoms: CA_27  and  C_28 
REMARK   13  A    between atoms: CA_27  and  CB_30 
REMARK       I    between atoms: C_28  and  N_39 
REMARK   14  A    between atoms: CB_30  and  CG_31 
REMARK   15  A    between atoms: CG_31  and  CD_32 
REMARK   16  A    between atoms: CD_32  and  CE_33 
REMARK   17  A    between atoms: CE_33  and  NZ_34 
REMARK   18  A    between atoms: N_39  and  CA_40 
REMARK   19  A    between atoms: CA_40  and  C_41 
REMARK   20  A    between atoms: CA_40  and  CB_43 
REMARK       I    between atoms: C_41  and  N_56 
REMARK   21  A    between atoms: CB_43  and  CG_44 
REMARK   22  A    between atoms: CG_44  and  CD_45 
REMARK   23  A    between atoms: CD_45  and  NE_46 
REMARK       I    between atoms: NE_46  and  CZ_47 
REMARK       I    between atoms: CZ_47  and  NH1_48 
REMARK   24  A    between atoms: N_56  and  CA_57 
REMARK   25  A    between atoms: CA_57  and  C_58 
REMARK   26  A    between atoms: CA_57  and  CB_60 
REMARK       I    between atoms: C_58  and  N_65 
REMARK   27  A    between atoms: CB_60  and  CG1_61 
REMARK   28  A    between atoms: N_65  and  CA_66 
REMARK   29  A    between atoms: CA_66  and  CB_69 
REMARK   30  A    between atoms: CA_66  and  C_67 
REMARK   31  A    between atoms: CB_69  and  CG_70 
REMARK   32  A    between atoms: CG_70  and  CD_71 
REMARK   33  A    between atoms: CD_71  and  CE_72 
REMARK   34  A    between atoms: CE_72  and  NZ_73 
ROOT
ATOM      1  N   GLY     1      57.316  42.304  46.360  1.00  0.00    -0.055 N 
ATOM      2  H1  GLY     1      57.722  42.231  45.449  1.00 99.99     0.276 HD
ATOM      3  H2  GLY     1      57.715  41.637  46.966  1.00 99.99     0.276 HD
ATOM      4  H3  GLY     1      56.359  42.067  46.302  1.00 99.99     0.276 HD
ENDROOT
BRANCH   1   5
ATOM      5  CA  GLY     1      57.518  43.680  46.851  1.00  0.00     0.292 C 
BRANCH   5   6
ATOM      6  C   GLY     1      56.586  43.945  48.048  1.00  0.00     0.261 C 
ATOM      7  N   LEU     2      56.428  42.915  48.884  1.00  0.00    -0.337 N 
ATOM      8  H   LEU     2      56.886  42.046  48.702  1.00 99.99     0.164 HD
ATOM      9  O   GLY     1      56.227  45.098  48.295  1.00  0.00    -0.270 OA
BRANCH   7  10
ATOM     10  CA  LEU     2      55.607  42.891  50.118  1.00  0.00     0.159 C 
BRANCH  10  11
ATOM     11  C   LEU     2      56.239  42.450  51.451  1.00  0.00     0.251 C 
ATOM     12  N   LEU     3      57.338  41.689  51.400  1.00  0.00    -0.338 N 
ATOM     13  H   LEU     3      57.663  41.310  50.537  1.00 99.99     0.164 HD
ATOM     14  O   LEU     2      55.696  42.787  52.500  1.00  0.00    -0.271 OA
BRANCH  12  15
ATOM     15  CA  LEU     3      58.128  41.269  52.582  1.00  0.00     0.159 C 
BRANCH  15  16
ATOM     16  C   LEU     3      59.342  42.161  52.910  1.00  0.00     0.251 C 
ATOM     17  O   LEU     3      59.121  43.303  53.304  1.00  0.00    -0.271 OA
ATOM     18  N   LYS     4      60.512  41.770  52.392  1.00  0.00    -0.338 N 
ATOM     19  H   LYS     4      60.562  40.965  51.799  1.00 99.99     0.164 HD
BRANCH  18  20
ATOM     20  CA  LYS     4      61.814  42.460  52.574  1.00  0.00     0.159 C 
BRANCH  20  21
ATOM     21  C   LYS     4      62.333  43.336  51.407  1.00  0.00     0.251 C 
ATOM     22  O   LYS     4      62.108  44.545  51.377  1.00  0.00    -0.271 OA
ATOM     23  N   ARG     5      63.126  42.733  50.523  1.00  0.00    -0.338 N 
ATOM     24  H   ARG     5      63.471  41.812  50.701  1.00 99.99     0.164 HD
BRANCH  23  25
ATOM     25  CA  ARG     5      63.667  43.340  49.287  1.00  0.00     0.159 C 
BRANCH  25  26
ATOM     26  C   ARG     5      62.688  43.209  48.087  1.00  0.00     0.251 C 
ATOM     27  O   ARG     5      61.706  43.937  47.973  1.00  0.00    -0.271 OA
ATOM     28  N   ILE     6      63.026  42.323  47.151  1.00  0.00    -0.338 N 
ATOM     29  H   ILE     6      63.897  41.836  47.215  1.00 99.99     0.164 HD
BRANCH  28  30
ATOM     30  CA  ILE     6      62.253  42.038  45.916  1.00  0.00     0.159 C 
BRANCH  30  31
ATOM     31  C   ILE     6      61.086  41.066  46.222  1.00  0.00     0.251 C 
ATOM     32  O   ILE     6      60.338  40.666  45.334  1.00  0.00    -0.271 OA
ATOM     33  N   LYS     7      61.061  40.597  47.469  1.00  0.00    -0.336 N 
ATOM     34  H   LYS     7      61.774  40.865  48.122  1.00 99.99     0.164 HD
BRANCH  33  35
ATOM     35  CA  LYS     7      60.041  39.703  48.061  1.00  0.00     0.168 C 
BRANCH  35  36
ATOM     36  CB  LYS     7      60.659  38.822  49.154  1.00  0.00     0.033 C 
BRANCH  36  37
ATOM     37  CG  LYS     7      60.197  37.365  49.193  1.00  0.00     0.004 C 
BRANCH  37  38
ATOM     38  CD  LYS     7      61.176  36.591  50.072  1.00  0.00     0.032 C 
BRANCH  38  39
ATOM     39  CE  LYS     7      61.010  35.079  49.939  1.00  0.00     0.206 C 
BRANCH  39  40
ATOM     40  NZ  LYS     7      59.640  34.709  50.316  1.00  0.00    -0.064 N 
ATOM     41  HZ3 LYS     7      59.306  34.007  49.687  1.00 99.99     0.275 HD
ATOM     42  HZ1 LYS     7      59.633  34.350  51.249  1.00 99.99     0.275 HD
ATOM     43  HZ2 LYS     7      59.049  35.513  50.260  1.00 99.99     0.275 HD
ENDBRANCH  39  40
ENDBRANCH  38  39
ENDBRANCH  37  38
ENDBRANCH  36  37
ENDBRANCH  35  36
BRANCH  35  44
ATOM     44  C   LYS     7      58.998  40.578  48.778  1.00  0.00     0.206 C 
ATOM     45  OXT LYS     7      59.451  41.612  49.323  1.00 99.99    -0.646 OA
ATOM     46  O   LYS     7      57.796  40.239  48.722  1.00 99.99    -0.646 OA
ENDBRANCH  35  44
ENDBRANCH  33  35
ENDBRANCH  30  31
BRANCH  30  47
ATOM     47  CB  ILE     6      63.205  41.466  44.836  1.00  0.00     0.029 C 
ATOM     48  CG2 ILE     6      63.538  42.525  43.771  1.00  0.00     0.002 C 
BRANCH  47  49
ATOM     49  CG1 ILE     6      64.509  40.932  45.462  1.00  0.00     0.002 C 
ATOM     50  CD  ILE     6      64.526  39.417  45.705  1.00  0.00     0.000 C 
ENDBRANCH  47  49
ENDBRANCH  30  47
ENDBRANCH  28  30
ENDBRANCH  25  26
BRANCH  25  51
ATOM     51  CB  ARG     5      64.988  42.610  49.009  1.00  0.00     0.034 C 
BRANCH  51  52
ATOM     52  CG  ARG     5      66.151  43.542  48.654  1.00  0.00     0.027 C 
BRANCH  52  53
ATOM     53  CD  ARG     5      65.687  44.773  47.862  1.00  0.00     0.116 C 
BRANCH  53  54
ATOM     54  NE  ARG     5      66.403  46.009  48.252  1.00  0.00    -0.212 N 
ATOM     55  CZ  ARG     5      66.211  46.777  49.332  1.00  0.00     0.666 C 
ATOM     56  NH1 ARG     5      65.276  46.524  50.238  1.00  0.00    -0.235 N 
ATOM     57  NH2 ARG     5      67.016  47.807  49.556  1.00  0.00    -0.235 N 
ATOM     58 1HH1 ARG     5      65.156  47.125  51.026  1.00 99.99     0.174 HD
ATOM     59 2HH1 ARG     5      64.659  45.752  50.101  1.00 99.99     0.174 HD
ATOM     60 1HH2 ARG     5      66.863  48.374  50.363  1.00 99.99     0.174 HD
ATOM     61 2HH2 ARG     5      67.770  48.008  48.937  1.00 99.99     0.174 HD
ATOM     62  HE  ARG     5      67.097  46.302  47.602  1.00 99.99     0.178 HD
ENDBRANCH  53  54
ENDBRANCH  52  53
ENDBRANCH  51  52
ENDBRANCH  25  51
ENDBRANCH  23  25
ENDBRANCH  20  21
BRANCH  20  63
ATOM     63  CB  LYS     4      62.890  41.418  52.914  1.00  0.00     0.032 C 
BRANCH  63  64
ATOM     64  CG  LYS     4      63.082  41.164  54.411  1.00  0.00     0.004 C 
BRANCH  64  65
ATOM     65  CD  LYS     4      62.588  39.755  54.751  1.00  0.00     0.032 C 
BRANCH  65  66
ATOM     66  CE  LYS     4      62.679  38.811  53.551  1.00  0.00     0.206 C 
BRANCH  66  67
ATOM     67  NZ  LYS     4      61.481  37.963  53.450  1.00  0.00    -0.064 N 
ATOM     68  HZ1 LYS     4      61.176  37.929  52.498  1.00 99.99     0.275 HD
ATOM     69  HZ2 LYS     4      61.688  37.037  53.767  1.00 99.99     0.275 HD
ATOM     70  HZ3 LYS     4      60.751  38.350  54.014  1.00 99.99     0.275 HD
ENDBRANCH  66  67
ENDBRANCH  65  66
ENDBRANCH  64  65
ENDBRANCH  63  64
ENDBRANCH  20  63
ENDBRANCH  18  20
ENDBRANCH  15  16
BRANCH  15  71
ATOM     71  CB  LEU     3      58.546  39.796  52.449  1.00  0.00     0.032 C 
BRANCH  71  72
ATOM     72  CG  LEU     3      57.360  38.846  52.238  1.00  0.00     0.002 C 
ATOM     73  CD2 LEU     3      56.332  38.966  53.370  1.00  0.00     0.000 C 
ATOM     74  CD1 LEU     3      57.859  37.402  52.154  1.00  0.00     0.000 C 
ENDBRANCH  71  72
ENDBRANCH  15  71
ENDBRANCH  12  15
ENDBRANCH  10  11
BRANCH  10  75
ATOM     75  CB  LEU     2      54.277  42.172  49.854  1.00  0.00     0.032 C 
BRANCH  75  76
ATOM     76  CG  LEU     2      54.472  40.671  49.591  1.00  0.00     0.002 C 
ATOM     77  CD1 LEU     2      53.819  39.861  50.711  1.00  0.00     0.000 C 
ATOM     78  CD2 LEU     2      53.885  40.250  48.238  1.00  0.00     0.000 C 
ENDBRANCH  75  76
ENDBRANCH  10  75
ENDBRANCH   7  10
ENDBRANCH   5   6
ENDBRANCH   1   5
TORSDOF 34
ENDMDL
MODEL 4
REMARK VINA RESULT:      -4.2      2.281      5.887
REMARK WARNING: 32 MAX_TORS EXCEEDED!!!
REMARK  34 active torsions:
REMARK  status: ('A' for Active; 'I' for Inactive)
REMARK    1  A    between atoms: N_1  and  CA_2 
REMARK    2  A    between atoms: CA_2  and  C_3 
REMARK       I    between atoms: C_3  and  N_8 
REMARK    3  A    between atoms: N_8  and  CA_9 
REMARK    4  A    between atoms: CA_9  and  C_10 
REMARK    5  A    between atoms: CA_9  and  CB_12 
REMARK       I    between atoms: C_10  and  N_17 
REMARK    6  A    between atoms: CB_12  and  CG_13 
REMARK    7  A    between atoms: N_17  and  CA_18 
REMARK    8  A    between atoms: CA_18  and  C_19 
REMARK    9  A    between atoms: CA_18  and  CB_21 
REMARK       I    between atoms: C_19  and  N_26 
REMARK   10  A    between atoms: CB_21  and  CG_22 
REMARK   11  A    between atoms: N_26  and  CA_27 
REMARK   12  A    between atoms: CA_27  and  C_28 
REMARK   13  A    between atoms: CA_27  and  CB_30 
REMARK       I    between atoms: C_28  and  N_39 
REMARK   14  A    between atoms: CB_30  and  CG_31 
REMARK   15  A    between atoms: CG_31  and  CD_32 
REMARK   16  A    between atoms: CD_32  and  CE_33 
REMARK   17  A    between atoms: CE_33  and  NZ_34 
REMARK   18  A    between atoms: N_39  and  CA_40 
REMARK   19  A    between atoms: CA_40  and  C_41 
REMARK   20  A    between atoms: CA_40  and  CB_43 
REMARK       I    between atoms: C_41  and  N_56 
REMARK   21  A    between atoms: CB_43  and  CG_44 
REMARK   22  A    between atoms: CG_44  and  CD_45 
REMARK   23  A    between atoms: CD_45  and  NE_46 
REMARK       I    between atoms: NE_46  and  CZ_47 
REMARK       I    between atoms: CZ_47  and  NH1_48 
REMARK   24  A    between atoms: N_56  and  CA_57 
REMARK   25  A    between atoms: CA_57  and  C_58 
REMARK   26  A    between atoms: CA_57  and  CB_60 
REMARK       I    between atoms: C_58  and  N_65 
REMARK   27  A    between atoms: CB_60  and  CG1_61 
REMARK   28  A    between atoms: N_65  and  CA_66 
REMARK   29  A    between atoms: CA_66  and  CB_69 
REMARK   30  A    between atoms: CA_66  and  C_67 
REMARK   31  A    between atoms: CB_69  and  CG_70 
REMARK   32  A    between atoms: CG_70  and  CD_71 
REMARK   33  A    between atoms: CD_71  and  CE_72 
REMARK   34  A    between atoms: CE_72  and  NZ_73 
ROOT
ATOM      1  N   GLY     1      64.719  46.613  50.491  1.00  0.00    -0.055 N 
ATOM      2  H1  GLY     1      65.154  47.507  50.598  1.00 99.99     0.276 HD
ATOM      3  H2  GLY     1      63.933  46.542  51.080  1.00 99.99     0.276 HD
ATOM      4  H3  GLY     1      65.346  45.916  50.804  1.00 99.99     0.276 HD
ENDROOT
BRANCH   1   5
ATOM      5  CA  GLY     1      64.357  46.437  49.072  1.00  0.00     0.292 C 
BRANCH   5   6
ATOM      6  C   GLY     1      64.755  45.024  48.607  1.00  0.00     0.261 C 
ATOM      7  N   LEU     2      65.686  44.983  47.649  1.00  0.00    -0.337 N 
ATOM      8  H   LEU     2      66.060  45.831  47.276  1.00 99.99     0.164 HD
ATOM      9  O   GLY     1      64.388  44.044  49.258  1.00  0.00    -0.270 OA
BRANCH   7  10
ATOM     10  CA  LEU     2      66.267  43.769  47.027  1.00  0.00     0.159 C 
BRANCH  10  11
ATOM     11  C   LEU     2      65.343  42.632  46.555  1.00  0.00     0.251 C 
ATOM     12  N   LEU     3      65.071  41.648  47.420  1.00  0.00    -0.338 N 
ATOM     13  H   LEU     3      65.551  41.581  48.292  1.00 99.99     0.164 HD
ATOM     14  O   LEU     2      64.919  42.658  45.403  1.00  0.00    -0.271 OA
BRANCH  12  15
ATOM     15  CA  LEU     3      64.120  40.540  47.165  1.00  0.00     0.159 C 
BRANCH  15  16
ATOM     16  C   LEU     3      62.681  40.782  47.662  1.00  0.00     0.251 C 
ATOM     17  O   LEU     3      61.761  40.330  46.985  1.00  0.00    -0.271 OA
ATOM     18  N   LYS     4      62.529  41.764  48.557  1.00  0.00    -0.338 N 
ATOM     19  H   LYS     4      63.312  42.319  48.842  1.00 99.99     0.164 HD
BRANCH  18  20
ATOM     20  CA  LYS     4      61.247  42.177  49.182  1.00  0.00     0.159 C 
BRANCH  20  21
ATOM     21  C   LYS     4      60.434  43.296  48.484  1.00  0.00     0.251 C 
ATOM     22  O   LYS     4      60.906  44.422  48.341  1.00  0.00    -0.271 OA
ATOM     23  N   ARG     5      59.270  42.933  47.950  1.00  0.00    -0.338 N 
ATOM     24  H   ARG     5      59.022  41.966  47.886  1.00 99.99     0.164 HD
BRANCH  23  25
ATOM     25  CA  ARG     5      58.287  43.839  47.313  1.00  0.00     0.159 C 
BRANCH  25  26
ATOM     26  C   ARG     5      56.956  43.919  48.109  1.00  0.00     0.251 C 
ATOM     27  O   ARG     5      56.149  44.828  47.930  1.00  0.00    -0.271 OA
ATOM     28  N   ILE     6      56.703  42.900  48.930  1.00  0.00    -0.338 N 
ATOM     29  H   ILE     6      57.323  42.116  48.958  1.00 99.99     0.164 HD
BRANCH  28  30
ATOM     30  CA  ILE     6      55.493  42.756  49.777  1.00  0.00     0.159 C 
BRANCH  30  31
ATOM     31  C   ILE     6      55.857  42.937  51.272  1.00  0.00     0.251 C 
ATOM     32  O   ILE     6      55.486  43.923  51.905  1.00  0.00    -0.271 OA
ATOM     33  N   LYS     7      56.457  41.888  51.833  1.00  0.00    -0.336 N 
ATOM     34  H   LYS     7      56.625  41.058  51.296  1.00 99.99     0.164 HD
BRANCH  33  35
ATOM     35  CA  LYS     7      56.966  41.793  53.220  1.00  0.00     0.168 C 
BRANCH  35  36
ATOM     36  CB  LYS     7      56.730  40.389  53.791  1.00  0.00     0.033 C 
BRANCH  36  37
ATOM     37  CG  LYS     7      55.472  39.664  53.313  1.00  0.00     0.004 C 
BRANCH  37  38
ATOM     38  CD  LYS     7      55.000  38.757  54.447  1.00  0.00     0.032 C 
BRANCH  38  39
ATOM     39  CE  LYS     7      53.708  38.018  54.103  1.00  0.00     0.206 C 
BRANCH  39  40
ATOM     40  NZ  LYS     7      53.969  37.076  53.008  1.00  0.00    -0.064 N 
ATOM     41  HZ3 LYS     7      53.754  37.518  52.137  1.00 99.99     0.275 HD
ATOM     42  HZ1 LYS     7      54.932  36.807  53.016  1.00 99.99     0.275 HD
ATOM     43  HZ2 LYS     7      53.393  36.266  53.119  1.00 99.99     0.275 HD
ENDBRANCH  39  40
ENDBRANCH  38  39
ENDBRANCH  37  38
ENDBRANCH  36  37
ENDBRANCH  35  36
BRANCH  35  44
ATOM     44  C   LYS     7      58.494  41.971  53.180  1.00  0.00     0.206 C 
ATOM     45  OXT LYS     7      58.894  43.159  53.206  1.00 99.99    -0.646 OA
ATOM     46  O   LYS     7      59.214  40.949  53.182  1.00 99.99    -0.646 OA
ENDBRANCH  35  44
ENDBRANCH  33  35
ENDBRANCH  30  31
BRANCH  30  47
ATOM     47  CB  ILE     6      54.841  41.376  49.510  1.00  0.00     0.029 C 
ATOM     48  CG2 ILE     6      53.307  41.465  49.577  1.00  0.00     0.002 C 
BRANCH  47  49
ATOM     49  CG1 ILE     6      55.269  40.807  48.143  1.00  0.00     0.002 C 
ATOM     50  CD  ILE     6      54.200  39.959  47.442  1.00  0.00     0.000 C 
ENDBRANCH  47  49
ENDBRANCH  30  47
ENDBRANCH  28  30
ENDBRANCH  25  26
BRANCH  25  51
ATOM     51  CB  ARG     5      58.059  43.279  45.902  1.00  0.00     0.034 C 
BRANCH  51  52
ATOM     52  CG  ARG     5      58.851  44.005  44.810  1.00  0.00     0.027 C 
BRANCH  52  53
ATOM     53  CD  ARG     5      59.386  43.040  43.742  1.00  0.00     0.116 C 
BRANCH  53  54
ATOM     54  NE  ARG     5      60.801  43.300  43.392  1.00  0.00    -0.212 N 
ATOM     55  CZ  ARG     5      61.865  42.511  43.583  1.00  0.00     0.666 C 
ATOM     56  NH1 ARG     5      61.786  41.326  44.173  1.00  0.00    -0.235 N 
ATOM     57  NH2 ARG     5      63.051  42.885  43.120  1.00  0.00    -0.235 N 
ATOM     58 1HH1 ARG     5      62.604  40.769  44.307  1.00 99.99     0.174 HD
ATOM     59 2HH1 ARG     5      60.906  41.014  44.525  1.00 99.99     0.174 HD
ATOM     60 1HH2 ARG     5      63.838  42.290  43.270  1.00 99.99     0.174 HD
ATOM     61 2HH2 ARG     5      63.156  43.740  42.620  1.00 99.99     0.174 HD
ATOM     62  HE  ARG     5      60.964  44.193  42.983  1.00 99.99     0.178 HD
ENDBRANCH  53  54
ENDBRANCH  52  53
ENDBRANCH  51  52
ENDBRANCH  25  51
ENDBRANCH  23  25
ENDBRANCH  20  21
BRANCH  20  63
ATOM     63  CB  LYS     4      61.510  42.602  50.634  1.00  0.00     0.032 C 
BRANCH  63  64
ATOM     64  CG  LYS     4      62.330  41.602  51.453  1.00  0.00     0.004 C 
BRANCH  64  65
ATOM     65  CD  LYS     4      62.511  42.142  52.874  1.00  0.00     0.032 C 
BRANCH  65  66
ATOM     66  CE  LYS     4      62.699  41.019  53.895  1.00  0.00     0.206 C 
BRANCH  66  67
ATOM     67  NZ  LYS     4      61.596  40.997  54.870  1.00  0.00    -0.064 N 
ATOM     68  HZ1 LYS     4      61.768  41.679  55.583  1.00 99.99     0.275 HD
ATOM     69  HZ2 LYS     4      60.731  41.204  54.413  1.00 99.99     0.275 HD
ATOM     70  HZ3 LYS     4      61.541  40.091  55.290  1.00 99.99     0.275 HD
ENDBRANCH  66  67
ENDBRANCH  65  66
ENDBRANCH  64  65
ENDBRANCH  63  64
ENDBRANCH  20  63
ENDBRANCH  18  20
ENDBRANCH  15  16
BRANCH  15  71
ATOM     71  CB  LEU     3      64.679  39.219  47.717  1.00  0.00     0.032 C 
BRANCH  71  72
ATOM     72  CG  LEU     3      66.188  39.057  47.491  1.00  0.00     0.002 C 
ATOM     73  CD2 LEU     3      66.488  38.044  46.379  1.00  0.00     0.000 C 
ATOM     74  CD1 LEU     3      66.862  38.605  48.788  1.00  0.00     0.000 C 
ENDBRANCH  71  72
ENDBRANCH  15  71
ENDBRANCH  12  15
ENDBRANCH  10  11
BRANCH  10  75
ATOM     75  CB  LEU     2      67.427  43.240  47.882  1.00  0.00     0.032 C 
BRANCH  75  76
ATOM     76  CG  LEU     2      68.687  42.970  47.046  1.00  0.00     0.002 C 
ATOM     77  CD1 LEU     2      68.925  41.463  46.943  1.00  0.00     0.000 C 
ATOM     78  CD2 LEU     2      68.578  43.574  45.641  1.00  0.00     0.000 C 
ENDBRANCH  75  76
ENDBRANCH  10  75
ENDBRANCH   7  10
ENDBRANCH   5   6
ENDBRANCH   1   5
TORSDOF 34
ENDMDL
MODEL 5
REMARK VINA RESULT:      -4.1      2.274      8.164
REMARK WARNING: 32 MAX_TORS EXCEEDED!!!
REMARK  34 active torsions:
REMARK  status: ('A' for Active; 'I' for Inactive)
REMARK    1  A    between atoms: N_1  and  CA_2 
REMARK    2  A    between atoms: CA_2  and  C_3 
REMARK       I    between atoms: C_3  and  N_8 
REMARK    3  A    between atoms: N_8  and  CA_9 
REMARK    4  A    between atoms: CA_9  and  C_10 
REMARK    5  A    between atoms: CA_9  and  CB_12 
REMARK       I    between atoms: C_10  and  N_17 
REMARK    6  A    between atoms: CB_12  and  CG_13 
REMARK    7  A    between atoms: N_17  and  CA_18 
REMARK    8  A    between atoms: CA_18  and  C_19 
REMARK    9  A    between atoms: CA_18  and  CB_21 
REMARK       I    between atoms: C_19  and  N_26 
REMARK   10  A    between atoms: CB_21  and  CG_22 
REMARK   11  A    between atoms: N_26  and  CA_27 
REMARK   12  A    between atoms: CA_27  and  C_28 
REMARK   13  A    between atoms: CA_27  and  CB_30 
REMARK       I    between atoms: C_28  and  N_39 
REMARK   14  A    between atoms: CB_30  and  CG_31 
REMARK   15  A    between atoms: CG_31  and  CD_32 
REMARK   16  A    between atoms: CD_32  and  CE_33 
REMARK   17  A    between atoms: CE_33  and  NZ_34 
REMARK   18  A    between atoms: N_39  and  CA_40 
REMARK   19  A    between atoms: CA_40  and  C_41 
REMARK   20  A    between atoms: CA_40  and  CB_43 
REMARK       I    between atoms: C_41  and  N_56 
REMARK   21  A    between atoms: CB_43  and  CG_44 
REMARK   22  A    between atoms: CG_44  and  CD_45 
REMARK   23  A    between atoms: CD_45  and  NE_46 
REMARK       I    between atoms: NE_46  and  CZ_47 
REMARK       I    between atoms: CZ_47  and  NH1_48 
REMARK   24  A    between atoms: N_56  and  CA_57 
REMARK   25  A    between atoms: CA_57  and  C_58 
REMARK   26  A    between atoms: CA_57  and  CB_60 
REMARK       I    between atoms: C_58  and  N_65 
REMARK   27  A    between atoms: CB_60  and  CG1_61 
REMARK   28  A    between atoms: N_65  and  CA_66 
REMARK   29  A    between atoms: CA_66  and  CB_69 
REMARK   30  A    between atoms: CA_66  and  C_67 
REMARK   31  A    between atoms: CB_69  and  CG_70 
REMARK   32  A    between atoms: CG_70  and  CD_71 
REMARK   33  A    between atoms: CD_71  and  CE_72 
REMARK   34  A    between atoms: CE_72  and  NZ_73 
ROOT
ATOM      1  N   GLY     1      61.567  42.148  45.018  1.00  0.00    -0.055 N 
ATOM      2  H1  GLY     1      62.470  42.552  44.871  1.00 99.99     0.276 HD
ATOM      3  H2  GLY     1      61.552  41.645  45.865  1.00 99.99     0.276 HD
ATOM      4  H3  GLY     1      61.400  41.478  44.312  1.00 99.99     0.276 HD
ENDROOT
BRANCH   1   5
ATOM      5  CA  GLY     1      60.564  43.229  45.005  1.00  0.00     0.292 C 
BRANCH   5   6
ATOM      6  C   GLY     1      59.155  42.631  45.181  1.00  0.00     0.261 C 
ATOM      7  N   LEU     2      58.846  42.262  46.427  1.00  0.00    -0.337 N 
ATOM      8  H   LEU     2      59.515  42.366  47.162  1.00 99.99     0.164 HD
ATOM      9  O   GLY     1      58.338  42.723  44.263  1.00  0.00    -0.270 OA
BRANCH   7  10
ATOM     10  CA  LEU     2      57.565  41.675  46.887  1.00  0.00     0.159 C 
BRANCH  10  11
ATOM     11  C   LEU     2      56.602  42.515  47.746  1.00  0.00     0.251 C 
ATOM     12  N   LEU     3      55.806  41.868  48.605  1.00  0.00    -0.338 N 
ATOM     13  H   LEU     3      55.740  40.872  48.598  1.00 99.99     0.164 HD
ATOM     14  O   LEU     2      56.582  43.732  47.589  1.00  0.00    -0.271 OA
BRANCH  12  15
ATOM     15  CA  LEU     3      54.902  42.527  49.577  1.00  0.00     0.159 C 
BRANCH  15  16
ATOM     16  C   LEU     3      55.520  42.811  50.961  1.00  0.00     0.251 C 
ATOM     17  O   LEU     3      55.450  43.960  51.391  1.00  0.00    -0.271 OA
ATOM     18  N   LYS     4      56.397  41.906  51.406  1.00  0.00    -0.338 N 
ATOM     19  H   LYS     4      56.649  41.119  50.840  1.00 99.99     0.164 HD
BRANCH  18  20
ATOM     20  CA  LYS     4      57.114  41.959  52.705  1.00  0.00     0.159 C 
BRANCH  20  21
ATOM     21  C   LYS     4      58.548  42.546  52.711  1.00  0.00     0.251 C 
ATOM     22  O   LYS     4      58.853  43.458  53.478  1.00  0.00    -0.271 OA
ATOM     23  N   ARG     5      59.441  41.930  51.940  1.00  0.00    -0.338 N 
ATOM     24  H   ARG     5      59.216  41.057  51.506  1.00 99.99     0.164 HD
BRANCH  23  25
ATOM     25  CA  ARG     5      60.840  42.359  51.718  1.00  0.00     0.159 C 
BRANCH  25  26
ATOM     26  C   ARG     5      61.075  42.878  50.272  1.00  0.00     0.251 C 
ATOM     27  O   ARG     5      60.245  42.710  49.383  1.00  0.00    -0.271 OA
ATOM     28  N   ILE     6      62.186  43.588  50.079  1.00  0.00    -0.338 N 
ATOM     29  H   ILE     6      62.778  43.810  50.854  1.00 99.99     0.164 HD
BRANCH  28  30
ATOM     30  CA  ILE     6      62.610  44.192  48.791  1.00  0.00     0.159 C 
BRANCH  30  31
ATOM     31  C   ILE     6      63.554  43.230  48.029  1.00  0.00     0.251 C 
ATOM     32  O   ILE     6      63.590  43.209  46.801  1.00  0.00    -0.271 OA
ATOM     33  N   LYS     7      64.408  42.557  48.799  1.00  0.00    -0.336 N 
ATOM     34  H   LYS     7      64.416  42.707  49.791  1.00 99.99     0.164 HD
BRANCH  33  35
ATOM     35  CA  LYS     7      65.384  41.534  48.361  1.00  0.00     0.168 C 
BRANCH  35  36
ATOM     36  CB  LYS     7      66.790  42.137  48.246  1.00  0.00     0.033 C 
BRANCH  36  37
ATOM     37  CG  LYS     7      66.884  43.661  48.322  1.00  0.00     0.004 C 
BRANCH  37  38
ATOM     38  CD  LYS     7      66.960  44.194  46.893  1.00  0.00     0.032 C 
BRANCH  38  39
ATOM     39  CE  LYS     7      67.245  43.093  45.875  1.00  0.00     0.206 C 
BRANCH  39  40
ATOM     40  NZ  LYS     7      66.118  43.000  44.938  1.00  0.00    -0.064 N 
ATOM     41  HZ3 LYS     7      66.098  42.083  44.540  1.00 99.99     0.275 HD
ATOM     42  HZ1 LYS     7      65.261  43.171  45.423  1.00 99.99     0.275 HD
ATOM     43  HZ2 LYS     7      66.233  43.674  44.209  1.00 99.99     0.275 HD
ENDBRANCH  39  40
ENDBRANCH  38  39
ENDBRANCH  37  38
ENDBRANCH  36  37
ENDBRANCH  35  36
BRANCH  35  44
ATOM     44  C   LYS     7      65.483  40.466  49.463  1.00  0.00     0.206 C 
ATOM     45  OXT LYS     7      64.392  39.956  49.813  1.00 99.99    -0.646 OA
ATOM     46  O   LYS     7      66.616  40.146  49.885  1.00 99.99    -0.646 OA
ENDBRANCH  35  44
ENDBRANCH  33  35
ENDBRANCH  30  31
BRANCH  30  47
ATOM     47  CB  ILE     6      63.284  45.560  49.063  1.00  0.00     0.029 C 
ATOM     48  CG2 ILE     6      62.239  46.638  49.397  1.00  0.00     0.002 C 
BRANCH  47  49
ATOM     49  CG1 ILE     6      64.313  45.461  50.207  1.00  0.00     0.002 C 
ATOM     50  CD  ILE     6      65.536  46.373  50.046  1.00  0.00     0.000 C 
ENDBRANCH  47  49
ENDBRANCH  30  47
ENDBRANCH  28  30
ENDBRANCH  25  26
BRANCH  25  51
ATOM     51  CB  ARG     5      61.705  41.126  52.015  1.00  0.00     0.034 C 
BRANCH  51  52
ATOM     52  CG  ARG     5      62.900  41.412  52.931  1.00  0.00     0.027 C 
BRANCH  52  53
ATOM     53  CD  ARG     5      63.486  40.130  53.538  1.00  0.00     0.116 C 
BRANCH  53  54
ATOM     54  NE  ARG     5      64.965  40.137  53.575  1.00  0.00    -0.212 N 
ATOM     55  CZ  ARG     5      65.819  39.315  52.952  1.00  0.00     0.666 C 
ATOM     56  NH1 ARG     5      65.419  38.305  52.190  1.00  0.00    -0.235 N 
ATOM     57  NH2 ARG     5      67.124  39.534  53.039  1.00  0.00    -0.235 N 
ATOM     58 1HH1 ARG     5      66.084  37.706  51.748  1.00 99.99     0.174 HD
ATOM     59 2HH1 ARG     5      64.443  38.120  52.099  1.00 99.99     0.174 HD
ATOM     60 1HH2 ARG     5      67.751  38.914  52.571  1.00 99.99     0.174 HD
ATOM     61 2HH2 ARG     5      67.476  40.312  53.551  1.00 99.99     0.174 HD
ATOM     62  HE  ARG     5      65.357  40.838  54.163  1.00 99.99     0.178 HD
ENDBRANCH  53  54
ENDBRANCH  52  53
ENDBRANCH  51  52
ENDBRANCH  25  51
ENDBRANCH  23  25
ENDBRANCH  20  21
BRANCH  20  63
ATOM     63  CB  LYS     4      57.164  40.548  53.309  1.00  0.00     0.032 C 
BRANCH  63  64
ATOM     64  CG  LYS     4      55.866  40.094  53.979  1.00  0.00     0.004 C 
BRANCH  64  65
ATOM     65  CD  LYS     4      56.055  38.681  54.539  1.00  0.00     0.032 C 
BRANCH  65  66
ATOM     66  CE  LYS     4      55.433  38.527  55.928  1.00  0.00     0.206 C 
BRANCH  66  67
ATOM     67  NZ  LYS     4      55.489  39.792  56.679  1.00  0.00    -0.064 N 
ATOM     68  HZ1 LYS     4      55.555  39.596  57.658  1.00 99.99     0.275 HD
ATOM     69  HZ2 LYS     4      56.284  40.325  56.392  1.00 99.99     0.275 HD
ATOM     70  HZ3 LYS     4      54.657  40.319  56.505  1.00 99.99     0.275 HD
ENDBRANCH  66  67
ENDBRANCH  65  66
ENDBRANCH  64  65
ENDBRANCH  63  64
ENDBRANCH  20  63
ENDBRANCH  18  20
ENDBRANCH  15  16
BRANCH  15  71
ATOM     71  CB  LEU     3      53.592  41.735  49.711  1.00  0.00     0.032 C 
BRANCH  71  72
ATOM     72  CG  LEU     3      53.789  40.216  49.610  1.00  0.00     0.002 C 
ATOM     73  CD2 LEU     3      52.844  39.591  48.576  1.00  0.00     0.000 C 
ATOM     74  CD1 LEU     3      53.550  39.569  50.976  1.00  0.00     0.000 C 
ENDBRANCH  71  72
ENDBRANCH  15  71
ENDBRANCH  12  15
ENDBRANCH  10  11
BRANCH  10  75
ATOM     75  CB  LEU     2      57.807  40.287  47.496  1.00  0.00     0.032 C 
BRANCH  75  76
ATOM     76  CG  LEU     2      57.198  39.165  46.642  1.00  0.00     0.002 C 
ATOM     77  CD1 LEU     2      56.273  38.304  47.504  1.00  0.00     0.000 C 
ATOM     78  CD2 LEU     2      56.420  39.722  45.444  1.00  0.00     0.000 C 
ENDBRANCH  75  76
ENDBRANCH  10  75
ENDBRANCH   7  10
ENDBRANCH   5   6
ENDBRANCH   1   5
TORSDOF 34
ENDMDL
MODEL 6
REMARK VINA RESULT:      -4.1      1.684      2.590
REMARK WARNING: 32 MAX_TORS EXCEEDED!!!
REMARK  34 active torsions:
REMARK  status: ('A' for Active; 'I' for Inactive)
REMARK    1  A    between atoms: N_1  and  CA_2 
REMARK    2  A    between atoms: CA_2  and  C_3 
REMARK       I    between atoms: C_3  and  N_8 
REMARK    3  A    between atoms: N_8  and  CA_9 
REMARK    4  A    between atoms: CA_9  and  C_10 
REMARK    5  A    between atoms: CA_9  and  CB_12 
REMARK       I    between atoms: C_10  and  N_17 
REMARK    6  A    between atoms: CB_12  and  CG_13 
REMARK    7  A    between atoms: N_17  and  CA_18 
REMARK    8  A    between atoms: CA_18  and  C_19 
REMARK    9  A    between atoms: CA_18  and  CB_21 
REMARK       I    between atoms: C_19  and  N_26 
REMARK   10  A    between atoms: CB_21  and  CG_22 
REMARK   11  A    between atoms: N_26  and  CA_27 
REMARK   12  A    between atoms: CA_27  and  C_28 
REMARK   13  A    between atoms: CA_27  and  CB_30 
REMARK       I    between atoms: C_28  and  N_39 
REMARK   14  A    between atoms: CB_30  and  CG_31 
REMARK   15  A    between atoms: CG_31  and  CD_32 
REMARK   16  A    between atoms: CD_32  and  CE_33 
REMARK   17  A    between atoms: CE_33  and  NZ_34 
REMARK   18  A    between atoms: N_39  and  CA_40 
REMARK   19  A    between atoms: CA_40  and  C_41 
REMARK   20  A    between atoms: CA_40  and  CB_43 
REMARK       I    between atoms: C_41  and  N_56 
REMARK   21  A    between atoms: CB_43  and  CG_44 
REMARK   22  A    between atoms: CG_44  and  CD_45 
REMARK   23  A    between atoms: CD_45  and  NE_46 
REMARK       I    between atoms: NE_46  and  CZ_47 
REMARK       I    between atoms: CZ_47  and  NH1_48 
REMARK   24  A    between atoms: N_56  and  CA_57 
REMARK   25  A    between atoms: CA_57  and  C_58 
REMARK   26  A    between atoms: CA_57  and  CB_60 
REMARK       I    between atoms: C_58  and  N_65 
REMARK   27  A    between atoms: CB_60  and  CG1_61 
REMARK   28  A    between atoms: N_65  and  CA_66 
REMARK   29  A    between atoms: CA_66  and  CB_69 
REMARK   30  A    between atoms: CA_66  and  C_67 
REMARK   31  A    between atoms: CB_69  and  CG_70 
REMARK   32  A    between atoms: CG_70  and  CD_71 
REMARK   33  A    between atoms: CD_71  and  CE_72 
REMARK   34  A    between atoms: CE_72  and  NZ_73 
ROOT
ATOM      1  N   GLY     1      62.670  36.459  49.364  1.00  0.00    -0.055 N 
ATOM      2  H1  GLY     1      62.782  37.089  50.133  1.00 99.99     0.276 HD
ATOM      3  H2  GLY     1      61.713  36.313  49.180  1.00 99.99     0.276 HD
ATOM      4  H3  GLY     1      63.025  35.575  49.624  1.00 99.99     0.276 HD
ENDROOT
BRANCH   1   5
ATOM      5  CA  GLY     1      63.374  37.018  48.195  1.00  0.00     0.292 C 
BRANCH   5   6
ATOM      6  C   GLY     1      63.979  38.387  48.561  1.00  0.00     0.261 C 
ATOM      7  N   LEU     2      63.677  39.383  47.723  1.00  0.00    -0.337 N 
ATOM      8  H   LEU     2      63.110  39.209  46.919  1.00 99.99     0.164 HD
ATOM      9  O   GLY     1      64.497  38.546  49.667  1.00  0.00    -0.270 OA
BRANCH   7  10
ATOM     10  CA  LEU     2      64.105  40.798  47.836  1.00  0.00     0.159 C 
BRANCH  10  11
ATOM     11  C   LEU     2      63.337  41.760  48.759  1.00  0.00     0.251 C 
ATOM     12  N   LEU     3      62.311  42.441  48.237  1.00  0.00    -0.338 N 
ATOM     13  H   LEU     3      62.129  42.429  47.256  1.00 99.99     0.164 HD
ATOM     14  O   LEU     2      63.713  41.887  49.921  1.00  0.00    -0.271 OA
BRANCH  12  15
ATOM     15  CA  LEU     3      61.404  43.323  49.009  1.00  0.00     0.159 C 
BRANCH  15  16
ATOM     16  C   LEU     3      59.915  43.237  48.620  1.00  0.00     0.251 C 
ATOM     17  O   LEU     3      59.248  42.333  49.118  1.00  0.00    -0.271 OA
ATOM     18  N   LYS     4      59.561  43.893  47.510  1.00  0.00    -0.338 N 
ATOM     19  H   LYS     4      60.248  44.373  46.962  1.00 99.99     0.164 HD
BRANCH  18  20
ATOM     20  CA  LYS     4      58.191  43.961  46.942  1.00  0.00     0.159 C 
BRANCH  20  21
ATOM     21  C   LYS     4      57.004  44.026  47.936  1.00  0.00     0.251 C 
ATOM     22  O   LYS     4      56.491  45.102  48.236  1.00  0.00    -0.271 OA
ATOM     23  N   ARG     5      56.506  42.858  48.337  1.00  0.00    -0.338 N 
ATOM     24  H   ARG     5      56.798  42.007  47.899  1.00 99.99     0.164 HD
BRANCH  23  25
ATOM     25  CA  ARG     5      55.436  42.670  49.343  1.00  0.00     0.159 C 
BRANCH  25  26
ATOM     26  C   ARG     5      55.961  42.824  50.797  1.00  0.00     0.251 C 
ATOM     27  O   ARG     5      55.639  43.777  51.502  1.00  0.00    -0.271 OA
ATOM     28  N   ILE     6      56.705  41.821  51.260  1.00  0.00    -0.338 N 
ATOM     29  H   ILE     6      56.844  41.003  50.702  1.00 99.99     0.164 HD
BRANCH  28  30
ATOM     30  CA  ILE     6      57.300  41.744  52.618  1.00  0.00     0.159 C 
BRANCH  30  31
ATOM     31  C   ILE     6      58.835  41.939  52.546  1.00  0.00     0.251 C 
ATOM     32  O   ILE     6      59.371  42.955  52.982  1.00  0.00    -0.271 OA
ATOM     33  N   LYS     7      59.515  40.875  52.122  1.00  0.00    -0.336 N 
ATOM     34  H   LYS     7      59.031  40.026  51.895  1.00 99.99     0.164 HD
BRANCH  33  35
ATOM     35  CA  LYS     7      60.976  40.784  51.900  1.00  0.00     0.168 C 
BRANCH  35  36
ATOM     36  CB  LYS     7      61.704  40.430  53.203  1.00  0.00     0.033 C 
BRANCH  36  37
ATOM     37  CG  LYS     7      62.530  41.546  53.844  1.00  0.00     0.004 C 
BRANCH  37  38
ATOM     38  CD  LYS     7      63.585  40.890  54.732  1.00  0.00     0.032 C 
BRANCH  38  39
ATOM     39  CE  LYS     7      62.968  40.082  55.872  1.00  0.00     0.206 C 
BRANCH  39  40
ATOM     40  NZ  LYS     7      62.169  40.977  56.718  1.00  0.00    -0.064 N 
ATOM     41  HZ3 LYS     7      61.396  40.466  57.095  1.00 99.99     0.275 HD
ATOM     42  HZ1 LYS     7      62.733  41.328  57.465  1.00 99.99     0.275 HD
ATOM     43  HZ2 LYS     7      61.825  41.738  56.169  1.00 99.99     0.275 HD
ENDBRANCH  39  40
ENDBRANCH  38  39
ENDBRANCH  37  38
ENDBRANCH  36  37
ENDBRANCH  35  36
BRANCH  35  44
ATOM     44  C   LYS     7      61.242  39.607  50.947  1.00  0.00     0.206 C 
ATOM     45  OXT LYS     7      61.573  38.533  51.503  1.00 99.99    -0.646 OA
ATOM     46  O   LYS     7      61.061  39.778  49.722  1.00 99.99    -0.646 OA
ENDBRANCH  35  44
ENDBRANCH  33  35
ENDBRANCH  30  31
BRANCH  30  47
ATOM     47  CB  ILE     6      56.926  40.388  53.267  1.00  0.00     0.029 C 
ATOM     48  CG2 ILE     6      56.233  40.596  54.625  1.00  0.00     0.002 C 
BRANCH  47  49
ATOM     49  CG1 ILE     6      56.016  39.555  52.343  1.00  0.00     0.002 C 
ATOM     50  CD  ILE     6      56.622  38.222  51.885  1.00  0.00     0.000 C 
ENDBRANCH  47  49
ENDBRANCH  30  47
ENDBRANCH  28  30
ENDBRANCH  25  26
BRANCH  25  51
ATOM     51  CB  ARG     5      54.880  41.260  49.099  1.00  0.00     0.034 C 
BRANCH  51  52
ATOM     52  CG  ARG     5      55.509  40.543  47.899  1.00  0.00     0.027 C 
BRANCH  52  53
ATOM     53  CD  ARG     5      56.451  39.410  48.328  1.00  0.00     0.116 C 
BRANCH  53  54
ATOM     54  NE  ARG     5      57.880  39.760  48.166  1.00  0.00    -0.212 N 
ATOM     55  CZ  ARG     5      58.704  39.453  47.157  1.00  0.00     0.666 C 
ATOM     56  NH1 ARG     5      58.326  38.725  46.114  1.00  0.00    -0.235 N 
ATOM     57  NH2 ARG     5      59.941  39.933  47.149  1.00  0.00    -0.235 N 
ATOM     58 1HH1 ARG     5      58.971  38.508  45.384  1.00 99.99     0.174 HD
ATOM     59 2HH1 ARG     5      57.399  38.356  46.088  1.00 99.99     0.174 HD
ATOM     60 1HH2 ARG     5      60.547  39.697  46.393  1.00 99.99     0.174 HD
ATOM     61 2HH2 ARG     5      60.258  40.531  47.879  1.00 99.99     0.174 HD
ATOM     62  HE  ARG     5      58.265  40.271  48.929  1.00 99.99     0.178 HD
ENDBRANCH  53  54
ENDBRANCH  52  53
ENDBRANCH  51  52
ENDBRANCH  25  51
ENDBRANCH  23  25
ENDBRANCH  20  21
BRANCH  20  63
ATOM     63  CB  LYS     4      57.975  42.763  46.006  1.00  0.00     0.032 C 
BRANCH  63  64
ATOM     64  CG  LYS     4      58.459  42.981  44.570  1.00  0.00     0.004 C 
BRANCH  64  65
ATOM     65  CD  LYS     4      59.169  41.716  44.080  1.00  0.00     0.032 C 
BRANCH  65  66
ATOM     66  CE  LYS     4      58.284  40.885  43.149  1.00  0.00     0.206 C 
BRANCH  66  67
ATOM     67  NZ  LYS     4      57.666  41.728  42.112  1.00  0.00    -0.064 N 
ATOM     68  HZ1 LYS     4      58.232  41.709  41.287  1.00 99.99     0.275 HD
ATOM     69  HZ2 LYS     4      56.751  41.388  41.896  1.00 99.99     0.275 HD
ATOM     70  HZ3 LYS     4      57.600  42.669  42.444  1.00 99.99     0.275 HD
ENDBRANCH  66  67
ENDBRANCH  65  66
ENDBRANCH  64  65
ENDBRANCH  63  64
ENDBRANCH  20  63
ENDBRANCH  18  20
ENDBRANCH  15  16
BRANCH  15  71
ATOM     71  CB  LEU     3      61.902  44.776  48.960  1.00  0.00     0.032 C 
BRANCH  71  72
ATOM     72  CG  LEU     3      62.556  45.238  50.270  1.00  0.00     0.002 C 
ATOM     73  CD2 LEU     3      64.078  45.369  50.127  1.00  0.00     0.000 C 
ATOM     74  CD1 LEU     3      62.233  44.247  51.390  1.00  0.00     0.000 C 
ENDBRANCH  71  72
ENDBRANCH  15  71
ENDBRANCH  12  15
ENDBRANCH  10  11
BRANCH  10  75
ATOM     75  CB  LEU     2      64.318  41.399  46.439  1.00  0.00     0.032 C 
BRANCH  75  76
ATOM     76  CG  LEU     2      65.550  42.315  46.384  1.00  0.00     0.002 C 
ATOM     77  CD1 LEU     2      66.380  41.991  45.142  1.00  0.00     0.000 C 
ATOM     78  CD2 LEU     2      65.157  43.797  46.373  1.00  0.00     0.000 C 
ENDBRANCH  75  76
ENDBRANCH  10  75
ENDBRANCH   7  10
ENDBRANCH   5   6
ENDBRANCH   1   5
TORSDOF 34
ENDMDL
MODEL 7
REMARK VINA RESULT:      -4.0      2.005      4.887
REMARK WARNING: 32 MAX_TORS EXCEEDED!!!
REMARK  34 active torsions:
REMARK  status: ('A' for Active; 'I' for Inactive)
REMARK    1  A    between atoms: N_1  and  CA_2 
REMARK    2  A    between atoms: CA_2  and  C_3 
REMARK       I    between atoms: C_3  and  N_8 
REMARK    3  A    between atoms: N_8  and  CA_9 
REMARK    4  A    between atoms: CA_9  and  C_10 
REMARK    5  A    between atoms: CA_9  and  CB_12 
REMARK       I    between atoms: C_10  and  N_17 
REMARK    6  A    between atoms: CB_12  and  CG_13 
REMARK    7  A    between atoms: N_17  and  CA_18 
REMARK    8  A    between atoms: CA_18  and  C_19 
REMARK    9  A    between atoms: CA_18  and  CB_21 
REMARK       I    between atoms: C_19  and  N_26 
REMARK   10  A    between atoms: CB_21  and  CG_22 
REMARK   11  A    between atoms: N_26  and  CA_27 
REMARK   12  A    between atoms: CA_27  and  C_28 
REMARK   13  A    between atoms: CA_27  and  CB_30 
REMARK       I    between atoms: C_28  and  N_39 
REMARK   14  A    between atoms: CB_30  and  CG_31 
REMARK   15  A    between atoms: CG_31  and  CD_32 
REMARK   16  A    between atoms: CD_32  and  CE_33 
REMARK   17  A    between atoms: CE_33  and  NZ_34 
REMARK   18  A    between atoms: N_39  and  CA_40 
REMARK   19  A    between atoms: CA_40  and  C_41 
REMARK   20  A    between atoms: CA_40  and  CB_43 
REMARK       I    between atoms: C_41  and  N_56 
REMARK   21  A    between atoms: CB_43  and  CG_44 
REMARK   22  A    between atoms: CG_44  and  CD_45 
REMARK   23  A    between atoms: CD_45  and  NE_46 
REMARK       I    between atoms: NE_46  and  CZ_47 
REMARK       I    between atoms: CZ_47  and  NH1_48 
REMARK   24  A    between atoms: N_56  and  CA_57 
REMARK   25  A    between atoms: CA_57  and  C_58 
REMARK   26  A    between atoms: CA_57  and  CB_60 
REMARK       I    between atoms: C_58  and  N_65 
REMARK   27  A    between atoms: CB_60  and  CG1_61 
REMARK   28  A    between atoms: N_65  and  CA_66 
REMARK   29  A    between atoms: CA_66  and  CB_69 
REMARK   30  A    between atoms: CA_66  and  C_67 
REMARK   31  A    between atoms: CB_69  and  CG_70 
REMARK   32  A    between atoms: CG_70  and  CD_71 
REMARK   33  A    between atoms: CD_71  and  CE_72 
REMARK   34  A    between atoms: CE_72  and  NZ_73 
ROOT
ATOM      1  N   GLY     1      66.779  47.695  48.889  1.00  0.00    -0.055 N 
ATOM      2  H1  GLY     1      67.698  47.693  49.283  1.00 99.99     0.276 HD
ATOM      3  H2  GLY     1      66.829  47.627  47.907  1.00 99.99     0.276 HD
ATOM      4  H3  GLY     1      66.359  48.571  49.070  1.00 99.99     0.276 HD
ENDROOT
BRANCH   1   5
ATOM      5  CA  GLY     1      66.015  46.580  49.478  1.00  0.00     0.292 C 
BRANCH   5   6
ATOM      6  C   GLY     1      66.326  45.279  48.714  1.00  0.00     0.261 C 
ATOM      7  N   LEU     2      66.362  45.396  47.384  1.00  0.00    -0.337 N 
ATOM      8  H   LEU     2      66.179  46.278  46.952  1.00 99.99     0.164 HD
ATOM      9  O   GLY     1      66.729  44.293  49.334  1.00  0.00    -0.270 OA
BRANCH   7  10
ATOM     10  CA  LEU     2      66.652  44.320  46.406  1.00  0.00     0.159 C 
BRANCH  10  11
ATOM     11  C   LEU     2      65.631  43.189  46.186  1.00  0.00     0.251 C 
ATOM     12  N   LEU     3      64.893  43.221  45.070  1.00  0.00    -0.338 N 
ATOM     13  H   LEU     3      64.907  44.015  44.466  1.00 99.99     0.164 HD
ATOM     14  O   LEU     2      65.514  42.325  47.050  1.00  0.00    -0.271 OA
BRANCH  12  15
ATOM     15  CA  LEU     3      63.947  42.160  44.654  1.00  0.00     0.159 C 
BRANCH  15  16
ATOM     16  C   LEU     3      62.741  41.950  45.593  1.00  0.00     0.251 C 
ATOM     17  O   LEU     3      62.033  40.965  45.399  1.00  0.00    -0.271 OA
ATOM     18  N   LYS     4      62.343  43.024  46.282  1.00  0.00    -0.338 N 
ATOM     19  H   LYS     4      62.793  43.909  46.150  1.00 99.99     0.164 HD
BRANCH  18  20
ATOM     20  CA  LYS     4      61.216  43.066  47.248  1.00  0.00     0.159 C 
BRANCH  20  21
ATOM     21  C   LYS     4      59.780  43.151  46.673  1.00  0.00     0.251 C 
ATOM     22  O   LYS     4      59.548  43.787  45.646  1.00  0.00    -0.271 OA
ATOM     23  N   ARG     5      58.857  42.405  47.278  1.00  0.00    -0.338 N 
ATOM     24  H   ARG     5      59.125  41.729  47.964  1.00 99.99     0.164 HD
BRANCH  23  25
ATOM     25  CA  ARG     5      57.411  42.389  46.963  1.00  0.00     0.159 C 
BRANCH  25  26
ATOM     26  C   ARG     5      56.550  42.971  48.118  1.00  0.00     0.251 C 
ATOM     27  O   ARG     5      56.351  44.178  48.230  1.00  0.00    -0.271 OA
ATOM     28  N   ILE     6      55.971  42.080  48.921  1.00  0.00    -0.338 N 
ATOM     29  H   ILE     6      56.054  41.103  48.726  1.00 99.99     0.164 HD
BRANCH  28  30
ATOM     30  CA  ILE     6      55.097  42.402  50.077  1.00  0.00     0.159 C 
BRANCH  30  31
ATOM     31  C   ILE     6      55.937  42.975  51.246  1.00  0.00     0.251 C 
ATOM     32  O   ILE     6      55.555  43.948  51.891  1.00  0.00    -0.271 OA
ATOM     33  N   LYS     7      57.003  42.247  51.578  1.00  0.00    -0.336 N 
ATOM     34  H   LYS     7      57.198  41.391  51.093  1.00 99.99     0.164 HD
BRANCH  33  35
ATOM     35  CA  LYS     7      58.014  42.572  52.609  1.00  0.00     0.168 C 
BRANCH  35  36
ATOM     36  CB  LYS     7      57.969  41.553  53.755  1.00  0.00     0.033 C 
BRANCH  36  37
ATOM     37  CG  LYS     7      57.588  40.121  53.376  1.00  0.00     0.004 C 
BRANCH  37  38
ATOM     38  CD  LYS     7      58.735  39.207  53.802  1.00  0.00     0.032 C 
BRANCH  38  39
ATOM     39  CE  LYS     7      59.758  39.925  54.679  1.00  0.00     0.206 C 
BRANCH  39  40
ATOM     40  NZ  LYS     7      61.049  39.965  53.980  1.00  0.00    -0.064 N 
ATOM     41  HZ3 LYS     7      60.982  40.593  53.204  1.00 99.99     0.275 HD
ATOM     42  HZ1 LYS     7      61.761  40.282  54.605  1.00 99.99     0.275 HD
ATOM     43  HZ2 LYS     7      61.276  39.050  53.646  1.00 99.99     0.275 HD
ENDBRANCH  39  40
ENDBRANCH  38  39
ENDBRANCH  37  38
ENDBRANCH  36  37
ENDBRANCH  35  36
BRANCH  35  44
ATOM     44  C   LYS     7      59.407  42.420  51.976  1.00  0.00     0.206 C 
ATOM     45  OXT LYS     7      60.361  42.836  52.677  1.00 99.99    -0.646 OA
ATOM     46  O   LYS     7      59.500  41.858  50.863  1.00 99.99    -0.646 OA
ENDBRANCH  35  44
ENDBRANCH  33  35
ENDBRANCH  30  31
BRANCH  30  47
ATOM     47  CB  ILE     6      54.318  41.132  50.502  1.00  0.00     0.029 C 
ATOM     48  CG2 ILE     6      52.941  41.070  49.819  1.00  0.00     0.002 C 
BRANCH  47  49
ATOM     49  CG1 ILE     6      55.115  39.851  50.181  1.00  0.00     0.002 C 
ATOM     50  CD  ILE     6      54.725  38.630  51.024  1.00  0.00     0.000 C 
ENDBRANCH  47  49
ENDBRANCH  30  47
ENDBRANCH  28  30
ENDBRANCH  25  26
BRANCH  25  51
ATOM     51  CB  ARG     5      57.061  40.919  46.694  1.00  0.00     0.034 C 
BRANCH  51  52
ATOM     52  CG  ARG     5      56.167  40.709  45.467  1.00  0.00     0.027 C 
BRANCH  52  53
ATOM     53  CD  ARG     5      56.930  40.080  44.293  1.00  0.00     0.116 C 
BRANCH  53  54
ATOM     54  NE  ARG     5      57.253  41.058  43.230  1.00  0.00    -0.212 N 
ATOM     55  CZ  ARG     5      58.431  41.634  42.957  1.00  0.00     0.666 C 
ATOM     56  NH1 ARG     5      59.527  41.404  43.668  1.00  0.00    -0.235 N 
ATOM     57  NH2 ARG     5      58.545  42.427  41.900  1.00  0.00    -0.235 N 
ATOM     58 1HH1 ARG     5      60.386  41.859  43.441  1.00 99.99     0.174 HD
ATOM     59 2HH1 ARG     5      59.474  40.805  44.465  1.00 99.99     0.174 HD
ATOM     60 1HH2 ARG     5      59.427  42.853  41.707  1.00 99.99     0.174 HD
ATOM     61 2HH2 ARG     5      57.767  42.589  41.300  1.00 99.99     0.174 HD
ATOM     62  HE  ARG     5      56.475  41.327  42.670  1.00 99.99     0.178 HD
ENDBRANCH  53  54
ENDBRANCH  52  53
ENDBRANCH  51  52
ENDBRANCH  25  51
ENDBRANCH  23  25
ENDBRANCH  20  21
BRANCH  20  63
ATOM     63  CB  LYS     4      61.424  44.244  48.211  1.00  0.00     0.032 C 
BRANCH  63  64
ATOM     64  CG  LYS     4      61.842  43.843  49.628  1.00  0.00     0.004 C 
BRANCH  64  65
ATOM     65  CD  LYS     4      63.259  43.265  49.591  1.00  0.00     0.032 C 
BRANCH  65  66
ATOM     66  CE  LYS     4      63.300  41.816  50.081  1.00  0.00     0.206 C 
BRANCH  66  67
ATOM     67  NZ  LYS     4      63.079  41.741  51.534  1.00  0.00    -0.064 N 
ATOM     68  HZ1 LYS     4      62.192  41.315  51.715  1.00 99.99     0.275 HD
ATOM     69  HZ2 LYS     4      63.803  41.200  51.963  1.00 99.99     0.275 HD
ATOM     70  HZ3 LYS     4      63.084  42.664  51.919  1.00 99.99     0.275 HD
ENDBRANCH  66  67
ENDBRANCH  65  66
ENDBRANCH  64  65
ENDBRANCH  63  64
ENDBRANCH  20  63
ENDBRANCH  18  20
ENDBRANCH  15  16
BRANCH  15  71
ATOM     71  CB  LEU     3      64.696  40.839  44.416  1.00  0.00     0.032 C 
BRANCH  71  72
ATOM     72  CG  LEU     3      64.702  40.402  42.945  1.00  0.00     0.002 C 
ATOM     73  CD2 LEU     3      65.856  39.436  42.648  1.00  0.00     0.000 C 
ATOM     74  CD1 LEU     3      64.818  41.629  42.039  1.00  0.00     0.000 C 
ENDBRANCH  71  72
ENDBRANCH  15  71
ENDBRANCH  12  15
ENDBRANCH  10  11
BRANCH  10  75
ATOM     75  CB  LEU     2      68.069  43.773  46.626  1.00  0.00     0.032 C 
BRANCH  75  76
ATOM     76  CG  LEU     2      68.732  43.336  45.311  1.00  0.00     0.002 C 
ATOM     77  CD1 LEU     2      70.226  43.658  45.355  1.00  0.00     0.000 C 
ATOM     78  CD2 LEU     2      68.532  41.840  45.042  1.00  0.00     0.000 C 
ENDBRANCH  75  76
ENDBRANCH  10  75
ENDBRANCH   7  10
ENDBRANCH   5   6
ENDBRANCH   1   5
TORSDOF 34
ENDMDL
MODEL 8
REMARK VINA RESULT:      -4.0      2.119      4.579
REMARK WARNING: 32 MAX_TORS EXCEEDED!!!
REMARK  34 active torsions:
REMARK  status: ('A' for Active; 'I' for Inactive)
REMARK    1  A    between atoms: N_1  and  CA_2 
REMARK    2  A    between atoms: CA_2  and  C_3 
REMARK       I    between atoms: C_3  and  N_8 
REMARK    3  A    between atoms: N_8  and  CA_9 
REMARK    4  A    between atoms: CA_9  and  C_10 
REMARK    5  A    between atoms: CA_9  and  CB_12 
REMARK       I    between atoms: C_10  and  N_17 
REMARK    6  A    between atoms: CB_12  and  CG_13 
REMARK    7  A    between atoms: N_17  and  CA_18 
REMARK    8  A    between atoms: CA_18  and  C_19 
REMARK    9  A    between atoms: CA_18  and  CB_21 
REMARK       I    between atoms: C_19  and  N_26 
REMARK   10  A    between atoms: CB_21  and  CG_22 
REMARK   11  A    between atoms: N_26  and  CA_27 
REMARK   12  A    between atoms: CA_27  and  C_28 
REMARK   13  A    between atoms: CA_27  and  CB_30 
REMARK       I    between atoms: C_28  and  N_39 
REMARK   14  A    between atoms: CB_30  and  CG_31 
REMARK   15  A    between atoms: CG_31  and  CD_32 
REMARK   16  A    between atoms: CD_32  and  CE_33 
REMARK   17  A    between atoms: CE_33  and  NZ_34 
REMARK   18  A    between atoms: N_39  and  CA_40 
REMARK   19  A    between atoms: CA_40  and  C_41 
REMARK   20  A    between atoms: CA_40  and  CB_43 
REMARK       I    between atoms: C_41  and  N_56 
REMARK   21  A    between atoms: CB_43  and  CG_44 
REMARK   22  A    between atoms: CG_44  and  CD_45 
REMARK   23  A    between atoms: CD_45  and  NE_46 
REMARK       I    between atoms: NE_46  and  CZ_47 
REMARK       I    between atoms: CZ_47  and  NH1_48 
REMARK   24  A    between atoms: N_56  and  CA_57 
REMARK   25  A    between atoms: CA_57  and  C_58 
REMARK   26  A    between atoms: CA_57  and  CB_60 
REMARK       I    between atoms: C_58  and  N_65 
REMARK   27  A    between atoms: CB_60  and  CG1_61 
REMARK   28  A    between atoms: N_65  and  CA_66 
REMARK   29  A    between atoms: CA_66  and  CB_69 
REMARK   30  A    between atoms: CA_66  and  C_67 
REMARK   31  A    between atoms: CB_69  and  CG_70 
REMARK   32  A    between atoms: CG_70  and  CD_71 
REMARK   33  A    between atoms: CD_71  and  CE_72 
REMARK   34  A    between atoms: CE_72  and  NZ_73 
ROOT
ATOM      1  N   GLY     1      66.662  45.119  46.730  1.00  0.00    -0.055 N 
ATOM      2  H1  GLY     1      67.367  44.487  47.053  1.00 99.99     0.276 HD
ATOM      3  H2  GLY     1      66.620  45.111  45.746  1.00 99.99     0.276 HD
ATOM      4  H3  GLY     1      66.924  46.039  46.975  1.00 99.99     0.276 HD
ENDROOT
BRANCH   1   5
ATOM      5  CA  GLY     1      65.374  44.729  47.335  1.00  0.00     0.292 C 
BRANCH   5   6
ATOM      6  C   GLY     1      64.907  43.388  46.740  1.00  0.00     0.261 C 
ATOM      7  N   LEU     2      65.030  43.281  45.414  1.00  0.00    -0.337 N 
ATOM      8  H   LEU     2      65.388  44.045  44.880  1.00 99.99     0.164 HD
ATOM      9  O   GLY     1      64.666  42.441  47.491  1.00  0.00    -0.270 OA
BRANCH   7  10
ATOM     10  CA  LEU     2      64.677  42.106  44.581  1.00  0.00     0.159 C 
BRANCH  10  11
ATOM     11  C   LEU     2      63.420  41.283  44.911  1.00  0.00     0.251 C 
ATOM     12  N   LEU     3      63.495  40.401  45.914  1.00  0.00    -0.338 N 
ATOM     13  H   LEU     3      64.368  40.187  46.348  1.00 99.99     0.164 HD
ATOM     14  O   LEU     2      62.413  41.445  44.226  1.00  0.00    -0.271 OA
BRANCH  12  15
ATOM     15  CA  LEU     3      62.353  39.609  46.429  1.00  0.00     0.159 C 
BRANCH  15  16
ATOM     16  C   LEU     3      61.429  40.353  47.414  1.00  0.00     0.251 C 
ATOM     17  O   LEU     3      60.414  39.773  47.791  1.00  0.00    -0.271 OA
ATOM     18  N   LYS     4      61.593  41.678  47.483  1.00  0.00    -0.338 N 
ATOM     19  H   LYS     4      62.257  42.140  46.892  1.00 99.99     0.164 HD
BRANCH  18  20
ATOM     20  CA  LYS     4      60.829  42.602  48.358  1.00  0.00     0.159 C 
BRANCH  20  21
ATOM     21  C   LYS     4      59.504  43.185  47.806  1.00  0.00     0.251 C 
ATOM     22  O   LYS     4      59.416  44.373  47.502  1.00  0.00    -0.271 OA
ATOM     23  N   ARG     5      58.529  42.310  47.568  1.00  0.00    -0.338 N 
ATOM     24  H   ARG     5      58.710  41.327  47.612  1.00 99.99     0.164 HD
BRANCH  23  25
ATOM     25  CA  ARG     5      57.156  42.640  47.124  1.00  0.00     0.159 C 
BRANCH  25  26
ATOM     26  C   ARG     5      56.224  43.006  48.313  1.00  0.00     0.251 C 
ATOM     27  O   ARG     5      55.877  44.165  48.527  1.00  0.00    -0.271 OA
ATOM     28  N   ILE     6      55.757  41.983  49.027  1.00  0.00    -0.338 N 
ATOM     29  H   ILE     6      55.962  41.045  48.748  1.00 99.99     0.164 HD
BRANCH  28  30
ATOM     30  CA  ILE     6      54.845  42.091  50.194  1.00  0.00     0.159 C 
BRANCH  30  31
ATOM     31  C   ILE     6      55.643  42.461  51.469  1.00  0.00     0.251 C 
ATOM     32  O   ILE     6      55.425  43.505  52.079  1.00  0.00    -0.271 OA
ATOM     33  N   LYS     7      56.454  41.504  51.919  1.00  0.00    -0.336 N 
ATOM     34  H   LYS     7      56.499  40.620  51.447  1.00 99.99     0.164 HD
BRANCH  33  35
ATOM     35  CA  LYS     7      57.374  41.590  53.075  1.00  0.00     0.168 C 
BRANCH  35  36
ATOM     36  CB  LYS     7      57.873  40.197  53.478  1.00  0.00     0.033 C 
BRANCH  36  37
ATOM     37  CG  LYS     7      58.796  40.132  54.696  1.00  0.00     0.004 C 
BRANCH  37  38
ATOM     38  CD  LYS     7      60.141  39.580  54.230  1.00  0.00     0.032 C 
BRANCH  38  39
ATOM     39  CE  LYS     7      61.322  40.321  54.851  1.00  0.00     0.206 C 
BRANCH  39  40
ATOM     40  NZ  LYS     7      61.178  40.320  56.313  1.00  0.00    -0.064 N 
ATOM     41  HZ3 LYS     7      61.435  41.219  56.667  1.00 99.99     0.275 HD
ATOM     42  HZ1 LYS     7      60.229  40.123  56.558  1.00 99.99     0.275 HD
ATOM     43  HZ2 LYS     7      61.779  39.625  56.707  1.00 99.99     0.275 HD
ENDBRANCH  39  40
ENDBRANCH  38  39
ENDBRANCH  37  38
ENDBRANCH  36  37
ENDBRANCH  35  36
BRANCH  35  44
ATOM     44  C   LYS     7      58.627  42.365  52.632  1.00  0.00     0.206 C 
ATOM     45  OXT LYS     7      58.941  43.335  53.362  1.00 99.99    -0.646 OA
ATOM     46  O   LYS     7      59.262  41.954  51.637  1.00 99.99    -0.646 OA
ENDBRANCH  35  44
ENDBRANCH  33  35
ENDBRANCH  30  31
BRANCH  30  47
ATOM     47  CB  ILE     6      54.074  40.760  50.367  1.00  0.00     0.029 C 
ATOM     48  CG2 ILE     6      52.597  40.918  49.968  1.00  0.00     0.002 C 
BRANCH  47  49
ATOM     49  CG1 ILE     6      54.716  39.626  49.542  1.00  0.00     0.002 C 
ATOM     50  CD  ILE     6      54.811  38.281  50.274  1.00  0.00     0.000 C 
ENDBRANCH  47  49
ENDBRANCH  30  47
ENDBRANCH  28  30
ENDBRANCH  25  26
BRANCH  25  51
ATOM     51  CB  ARG     5      56.648  41.395  46.383  1.00  0.00     0.034 C 
BRANCH  51  52
ATOM     52  CG  ARG     5      57.736  40.652  45.601  1.00  0.00     0.027 C 
BRANCH  52  53
ATOM     53  CD  ARG     5      57.931  41.225  44.190  1.00  0.00     0.116 C 
BRANCH  53  54
ATOM     54  NE  ARG     5      59.211  41.952  44.037  1.00  0.00    -0.212 N 
ATOM     55  CZ  ARG     5      59.435  43.270  44.116  1.00  0.00     0.666 C 
ATOM     56  NH1 ARG     5      58.469  44.153  44.331  1.00  0.00    -0.235 N 
ATOM     57  NH2 ARG     5      60.677  43.730  44.036  1.00  0.00    -0.235 N 
ATOM     58 1HH1 ARG     5      58.673  45.129  44.374  1.00 99.99     0.174 HD
ATOM     59 2HH1 ARG     5      57.526  43.836  44.403  1.00 99.99     0.174 HD
ATOM     60 1HH2 ARG     5      60.833  44.714  44.094  1.00 99.99     0.174 HD
ATOM     61 2HH2 ARG     5      61.445  43.106  43.931  1.00 99.99     0.174 HD
ATOM     62  HE  ARG     5      59.990  41.369  43.827  1.00 99.99     0.178 HD
ENDBRANCH  53  54
ENDBRANCH  52  53
ENDBRANCH  51  52
ENDBRANCH  25  51
ENDBRANCH  23  25
ENDBRANCH  20  21
BRANCH  20  63
ATOM     63  CB  LYS     4      61.738  43.770  48.771  1.00  0.00     0.032 C 
BRANCH  63  64
ATOM     64  CG  LYS     4      62.119  43.789  50.253  1.00  0.00     0.004 C 
BRANCH  64  65
ATOM     65  CD  LYS     4      63.360  44.665  50.443  1.00  0.00     0.032 C 
BRANCH  65  66
ATOM     66  CE  LYS     4      62.998  46.136  50.653  1.00  0.00     0.206 C 
BRANCH  66  67
ATOM     67  NZ  LYS     4      63.656  46.993  49.654  1.00  0.00    -0.064 N 
ATOM     68  HZ1 LYS     4      63.675  47.937  49.985  1.00 99.99     0.275 HD
ATOM     69  HZ2 LYS     4      64.591  46.676  49.494  1.00 99.99     0.275 HD
ATOM     70  HZ3 LYS     4      63.143  46.957  48.796  1.00 99.99     0.275 HD
ENDBRANCH  66  67
ENDBRANCH  65  66
ENDBRANCH  64  65
ENDBRANCH  63  64
ENDBRANCH  20  63
ENDBRANCH  18  20
ENDBRANCH  15  16
BRANCH  15  71
ATOM     71  CB  LEU     3      62.849  38.285  47.032  1.00  0.00     0.032 C 
BRANCH  71  72
ATOM     72  CG  LEU     3      63.730  38.477  48.274  1.00  0.00     0.002 C 
ATOM     73  CD2 LEU     3      65.162  37.981  48.033  1.00  0.00     0.000 C 
ATOM     74  CD1 LEU     3      63.124  37.728  49.461  1.00  0.00     0.000 C 
ENDBRANCH  71  72
ENDBRANCH  15  71
ENDBRANCH  12  15
ENDBRANCH  10  11
BRANCH  10  75
ATOM     75  CB  LEU     2      65.908  41.210  44.383  1.00  0.00     0.032 C 
BRANCH  75  76
ATOM     76  CG  LEU     2      66.049  40.732  42.930  1.00  0.00     0.002 C 
ATOM     77  CD1 LEU     2      65.588  41.836  41.977  1.00  0.00     0.000 C 
ATOM     78  CD2 LEU     2      67.491  40.331  42.600  1.00  0.00     0.000 C 
ENDBRANCH  75  76
ENDBRANCH  10  75
ENDBRANCH   7  10
ENDBRANCH   5   6
ENDBRANCH   1   5
TORSDOF 34
ENDMDL
MODEL 9
REMARK VINA RESULT:      -4.0      2.218      8.777
REMARK WARNING: 32 MAX_TORS EXCEEDED!!!
REMARK  34 active torsions:
REMARK  status: ('A' for Active; 'I' for Inactive)
REMARK    1  A    between atoms: N_1  and  CA_2 
REMARK    2  A    between atoms: CA_2  and  C_3 
REMARK       I    between atoms: C_3  and  N_8 
REMARK    3  A    between atoms: N_8  and  CA_9 
REMARK    4  A    between atoms: CA_9  and  C_10 
REMARK    5  A    between atoms: CA_9  and  CB_12 
REMARK       I    between atoms: C_10  and  N_17 
REMARK    6  A    between atoms: CB_12  and  CG_13 
REMARK    7  A    between atoms: N_17  and  CA_18 
REMARK    8  A    between atoms: CA_18  and  C_19 
REMARK    9  A    between atoms: CA_18  and  CB_21 
REMARK       I    between atoms: C_19  and  N_26 
REMARK   10  A    between atoms: CB_21  and  CG_22 
REMARK   11  A    between atoms: N_26  and  CA_27 
REMARK   12  A    between atoms: CA_27  and  C_28 
REMARK   13  A    between atoms: CA_27  and  CB_30 
REMARK       I    between atoms: C_28  and  N_39 
REMARK   14  A    between atoms: CB_30  and  CG_31 
REMARK   15  A    between atoms: CG_31  and  CD_32 
REMARK   16  A    between atoms: CD_32  and  CE_33 
REMARK   17  A    between atoms: CE_33  and  NZ_34 
REMARK   18  A    between atoms: N_39  and  CA_40 
REMARK   19  A    between atoms: CA_40  and  C_41 
REMARK   20  A    between atoms: CA_40  and  CB_43 
REMARK       I    between atoms: C_41  and  N_56 
REMARK   21  A    between atoms: CB_43  and  CG_44 
REMARK   22  A    between atoms: CG_44  and  CD_45 
REMARK   23  A    between atoms: CD_45  and  NE_46 
REMARK       I    between atoms: NE_46  and  CZ_47 
REMARK       I    between atoms: CZ_47  and  NH1_48 
REMARK   24  A    between atoms: N_56  and  CA_57 
REMARK   25  A    between atoms: CA_57  and  C_58 
REMARK   26  A    between atoms: CA_57  and  CB_60 
REMARK       I    between atoms: C_58  and  N_65 
REMARK   27  A    between atoms: CB_60  and  CG1_61 
REMARK   28  A    between atoms: N_65  and  CA_66 
REMARK   29  A    between atoms: CA_66  and  CB_69 
REMARK   30  A    between atoms: CA_66  and  C_67 
REMARK   31  A    between atoms: CB_69  and  CG_70 
REMARK   32  A    between atoms: CG_70  and  CD_71 
REMARK   33  A    between atoms: CD_71  and  CE_72 
REMARK   34  A    between atoms: CE_72  and  NZ_73 
ROOT
ATOM      1  N   GLY     1      57.390  42.304  46.336  1.00  0.00    -0.055 N 
ATOM      2  H1  GLY     1      58.198  42.060  45.801  1.00 99.99     0.276 HD
ATOM      3  H2  GLY     1      57.278  41.680  47.090  1.00 99.99     0.276 HD
ATOM      4  H3  GLY     1      56.587  42.182  45.773  1.00 99.99     0.276 HD
ENDROOT
BRANCH   1   5
ATOM      5  CA  GLY     1      57.538  43.697  46.797  1.00  0.00     0.292 C 
BRANCH   5   6
ATOM      6  C   GLY     1      56.604  43.949  47.995  1.00  0.00     0.261 C 
ATOM      7  N   LEU     2      56.496  42.931  48.854  1.00  0.00    -0.337 N 
ATOM      8  H   LEU     2      56.988  42.078  48.686  1.00 99.99     0.164 HD
ATOM      9  O   GLY     1      56.200  45.091  48.221  1.00  0.00    -0.270 OA
BRANCH   7  10
ATOM     10  CA  LEU     2      55.686  42.900  50.095  1.00  0.00     0.159 C 
BRANCH  10  11
ATOM     11  C   LEU     2      56.327  42.442  51.418  1.00  0.00     0.251 C 
ATOM     12  N   LEU     3      57.466  41.744  51.352  1.00  0.00    -0.338 N 
ATOM     13  H   LEU     3      57.820  41.417  50.478  1.00 99.99     0.164 HD
ATOM     14  O   LEU     2      55.756  42.708  52.472  1.00  0.00    -0.271 OA
BRANCH  12  15
ATOM     15  CA  LEU     3      58.266  41.322  52.526  1.00  0.00     0.159 C 
BRANCH  15  16
ATOM     16  C   LEU     3      59.517  42.178  52.810  1.00  0.00     0.251 C 
ATOM     17  O   LEU     3      59.342  43.323  53.218  1.00  0.00    -0.271 OA
ATOM     18  N   LYS     4      60.653  41.758  52.245  1.00  0.00    -0.338 N 
ATOM     19  H   LYS     4      60.658  40.955  51.646  1.00 99.99     0.164 HD
BRANCH  18  20
ATOM     20  CA  LYS     4      61.981  42.410  52.379  1.00  0.00     0.159 C 
BRANCH  20  21
ATOM     21  C   LYS     4      62.344  43.516  51.357  1.00  0.00     0.251 C 
ATOM     22  O   LYS     4      62.067  44.694  51.577  1.00  0.00    -0.271 OA
ATOM     23  N   ARG     5      63.071  43.134  50.308  1.00  0.00    -0.338 N 
ATOM     24  H   ARG     5      63.470  42.218  50.277  1.00 99.99     0.164 HD
BRANCH  23  25
ATOM     25  CA  ARG     5      63.463  43.990  49.166  1.00  0.00     0.159 C 
BRANCH  25  26
ATOM     26  C   ARG     5      63.532  43.197  47.831  1.00  0.00     0.251 C 
ATOM     27  O   ARG     5      63.735  43.756  46.757  1.00  0.00    -0.271 OA
ATOM     28  N   ILE     6      63.447  41.871  47.934  1.00  0.00    -0.338 N 
ATOM     29  H   ILE     6      63.406  41.442  48.837  1.00 99.99     0.164 HD
BRANCH  28  30
ATOM     30  CA  ILE     6      63.502  40.913  46.802  1.00  0.00     0.159 C 
BRANCH  30  31
ATOM     31  C   ILE     6      62.147  40.180  46.649  1.00  0.00     0.251 C 
ATOM     32  O   ILE     6      61.828  39.640  45.592  1.00  0.00    -0.271 OA
ATOM     33  N   LYS     7      61.446  40.058  47.775  1.00  0.00    -0.336 N 
ATOM     34  H   LYS     7      61.815  40.413  48.638  1.00 99.99     0.164 HD
BRANCH  33  35
ATOM     35  CA  LYS     7      60.101  39.458  47.925  1.00  0.00     0.168 C 
BRANCH  35  36
ATOM     36  CB  LYS     7      60.167  38.177  48.766  1.00  0.00     0.033 C 
BRANCH  36  37
ATOM     37  CG  LYS     7      61.530  37.825  49.362  1.00  0.00     0.004 C 
BRANCH  37  38
ATOM     38  CD  LYS     7      61.480  38.143  50.855  1.00  0.00     0.032 C 
BRANCH  38  39
ATOM     39  CE  LYS     7      61.751  36.916  51.722  1.00  0.00     0.206 C 
BRANCH  39  40
ATOM     40  NZ  LYS     7      63.201  36.716  51.835  1.00  0.00    -0.064 N 
ATOM     41  HZ3 LYS     7      63.507  36.115  51.097  1.00 99.99     0.275 HD
ATOM     42  HZ1 LYS     7      63.670  37.596  51.764  1.00 99.99     0.275 HD
ATOM     43  HZ2 LYS     7      63.412  36.292  52.716  1.00 99.99     0.275 HD
ENDBRANCH  39  40
ENDBRANCH  38  39
ENDBRANCH  37  38
ENDBRANCH  36  37
ENDBRANCH  35  36
BRANCH  35  44
ATOM     44  C   LYS     7      59.230  40.436  48.731  1.00  0.00     0.206 C 
ATOM     45  OXT LYS     7      59.859  41.327  49.350  1.00 99.99    -0.646 OA
ATOM     46  O   LYS     7      57.987  40.316  48.673  1.00 99.99    -0.646 OA
ENDBRANCH  35  44
ENDBRANCH  33  35
ENDBRANCH  30  31
BRANCH  30  47
ATOM     47  CB  ILE     6      64.669  39.919  47.026  1.00  0.00     0.029 C 
ATOM     48  CG2 ILE     6      65.909  40.324  46.211  1.00  0.00     0.002 C 
BRANCH  47  49
ATOM     49  CG1 ILE     6      65.040  39.817  48.520  1.00  0.00     0.002 C 
ATOM     50  CD  ILE     6      66.509  40.125  48.834  1.00  0.00     0.000 C 
ENDBRANCH  47  49
ENDBRANCH  30  47
ENDBRANCH  28  30
ENDBRANCH  25  26
BRANCH  25  51
ATOM     51  CB  ARG     5      64.832  44.577  49.536  1.00  0.00     0.034 C 
BRANCH  51  52
ATOM     52  CG  ARG     5      66.011  43.888  48.841  1.00  0.00     0.027 C 
BRANCH  52  53
ATOM     53  CD  ARG     5      66.765  44.836  47.899  1.00  0.00     0.116 C 
BRANCH  53  54
ATOM     54  NE  ARG     5      66.942  44.273  46.541  1.00  0.00    -0.212 N 
ATOM     55  CZ  ARG     5      67.933  43.499  46.083  1.00  0.00     0.666 C 
ATOM     56  NH1 ARG     5      68.965  43.132  46.831  1.00  0.00    -0.235 N 
ATOM     57  NH2 ARG     5      67.874  43.018  44.848  1.00  0.00    -0.235 N 
ATOM     58 1HH1 ARG     5      69.691  42.561  46.452  1.00 99.99     0.174 HD
ATOM     59 2HH1 ARG     5      69.034  43.472  47.767  1.00 99.99     0.174 HD
ATOM     60 1HH2 ARG     5      68.619  42.443  44.516  1.00 99.99     0.174 HD
ATOM     61 2HH2 ARG     5      67.093  43.216  44.262  1.00 99.99     0.174 HD
ATOM     62  HE  ARG     5      66.233  44.536  45.893  1.00 99.99     0.178 HD
ENDBRANCH  53  54
ENDBRANCH  52  53
ENDBRANCH  51  52
ENDBRANCH  25  51
ENDBRANCH  23  25
ENDBRANCH  20  21
BRANCH  20  63
ATOM     63  CB  LYS     4      63.075  41.333  52.339  1.00  0.00     0.032 C 
BRANCH  63  64
ATOM     64  CG  LYS     4      62.977  40.283  53.448  1.00  0.00     0.004 C 
BRANCH  64  65
ATOM     65  CD  LYS     4      63.654  40.819  54.712  1.00  0.00     0.032 C 
BRANCH  65  66
ATOM     66  CE  LYS     4      62.665  40.984  55.867  1.00  0.00     0.206 C 
BRANCH  66  67
ATOM     67  NZ  LYS     4      61.907  39.744  56.098  1.00  0.00    -0.064 N 
ATOM     68  HZ1 LYS     4      60.926  39.943  56.073  1.00 99.99     0.275 HD
ATOM     69  HZ2 LYS     4      62.129  39.070  55.394  1.00 99.99     0.275 HD
ATOM     70  HZ3 LYS     4      62.142  39.373  56.997  1.00 99.99     0.275 HD
ENDBRANCH  66  67
ENDBRANCH  65  66
ENDBRANCH  64  65
ENDBRANCH  63  64
ENDBRANCH  20  63
ENDBRANCH  18  20
ENDBRANCH  15  16
BRANCH  15  71
ATOM     71  CB  LEU     3      58.631  39.833  52.417  1.00  0.00     0.032 C 
BRANCH  71  72
ATOM     72  CG  LEU     3      57.446  38.947  52.009  1.00  0.00     0.002 C 
ATOM     73  CD2 LEU     3      56.404  38.846  53.130  1.00  0.00     0.000 C 
ATOM     74  CD1 LEU     3      57.944  37.546  51.649  1.00  0.00     0.000 C 
ENDBRANCH  71  72
ENDBRANCH  15  71
ENDBRANCH  12  15
ENDBRANCH  10  11
BRANCH  10  75
ATOM     75  CB  LEU     2      54.349  42.191  49.836  1.00  0.00     0.032 C 
BRANCH  75  76
ATOM     76  CG  LEU     2      54.527  40.681  49.617  1.00  0.00     0.002 C 
ATOM     77  CD1 LEU     2      53.755  39.909  50.689  1.00  0.00     0.000 C 
ATOM     78  CD2 LEU     2      54.053  40.248  48.225  1.00  0.00     0.000 C 
ENDBRANCH  75  76
ENDBRANCH  10  75
ENDBRANCH   7  10
ENDBRANCH   5   6
ENDBRANCH   1   5
TORSDOF 34
ENDMDL
