MODEL 1
REMARK VINA RESULT:      -6.3      0.000      0.000
REMARK  29 active torsions:
REMARK  status: ('A' for Active; 'I' for Inactive)
REMARK    1  A    between atoms: N_1  and  CA_2 
REMARK    2  A    between atoms: CA_2  and  CB_5 
REMARK    3  A    between atoms: CA_2  and  C_3 
REMARK       I    between atoms: C_3  and  N_16 
REMARK    4  A    between atoms: CB_5  and  CG_6 
REMARK    5  A    between atoms: CG_6  and  CD_7 
REMARK    6  A    between atoms: CD_7  and  CE_8 
REMARK    7  A    between atoms: CE_8  and  NZ_9 
REMARK    8  A    between atoms: N_16  and  CA_17 
REMARK    9  A    between atoms: CA_17  and  C_18 
REMARK   10  A    between atoms: CA_17  and  CB_20 
REMARK       I    between atoms: C_18  and  N_32 
REMARK   11  A    between atoms: CB_20  and  CG_21 
REMARK   12  A    between atoms: N_32  and  CA_33 
REMARK   13  A    between atoms: CA_33  and  CB_36 
REMARK   14  A    between atoms: CA_33  and  C_34 
REMARK       I    between atoms: C_34  and  N_49 
REMARK   15  A    between atoms: CB_36  and  CG_37 
REMARK   16  A    between atoms: CG_37  and  CD_38 
REMARK   17  A    between atoms: CD_38  and  NE_39 
REMARK       I    between atoms: NE_39  and  CZ_40 
REMARK       I    between atoms: CZ_40  and  NH1_41 
REMARK   18  A    between atoms: N_49  and  CA_50 
REMARK   19  A    between atoms: CA_50  and  CB_53 
REMARK   20  A    between atoms: CA_50  and  C_51 
REMARK       I    between atoms: C_51  and  N_65 
REMARK   21  A    between atoms: CB_53  and  CG_54 
REMARK   22  A    between atoms: N_65  and  CA_66 
REMARK   23  A    between atoms: CA_66  and  CB_69 
REMARK   24  A    between atoms: CA_66  and  C_67 
REMARK       I    between atoms: C_67  and  N_74 
REMARK   25  A    between atoms: CB_69  and  CG1_70 
REMARK   26  A    between atoms: N_74  and  CA_75 
REMARK   27  A    between atoms: CA_75  and  C_76 
REMARK   28  A    between atoms: CA_75  and  CB_78 
REMARK   29  A    between atoms: CB_78  and  CG_79 
ROOT
ATOM      1  N   LYS     1      55.302  39.755  44.394  1.00  0.00    -0.058 N 
ATOM      2  H1  LYS     1      54.903  39.145  45.077  1.00 99.99     0.276 HD
ATOM      3  H2  LYS     1      54.830  40.629  44.441  1.00 99.99     0.276 HD
ATOM      4  H3  LYS     1      55.101  39.420  43.477  1.00 99.99     0.276 HD
ENDROOT
BRANCH   1   5
ATOM      5  CA  LYS     1      56.765  39.915  44.625  1.00  0.00     0.255 C 
BRANCH   5   6
ATOM      6  CB  LYS     1      57.435  40.592  43.413  1.00  0.00     0.040 C 
BRANCH   6   7
ATOM      7  CG  LYS     1      58.413  39.724  42.616  1.00  0.00     0.004 C 
BRANCH   7   8
ATOM      8  CD  LYS     1      57.876  39.512  41.194  1.00  0.00     0.032 C 
BRANCH   8   9
ATOM      9  CE  LYS     1      58.977  39.626  40.134  1.00  0.00     0.206 C 
BRANCH   9  10
ATOM     10  NZ  LYS     1      60.231  40.144  40.707  1.00  0.00    -0.064 N 
ATOM     11  HZ3 LYS     1      60.966  40.069  40.032  1.00 99.99     0.275 HD
ATOM     12  HZ1 LYS     1      60.114  41.106  40.958  1.00 99.99     0.275 HD
ATOM     13  HZ2 LYS     1      60.476  39.618  41.521  1.00 99.99     0.275 HD
ENDBRANCH   9  10
ENDBRANCH   8   9
ENDBRANCH   7   8
ENDBRANCH   6   7
ENDBRANCH   5   6
BRANCH   5  14
ATOM     14  C   LYS     1      57.192  40.695  45.902  1.00  0.00     0.259 C 
ATOM     15  O   LYS     1      57.205  40.140  47.003  1.00  0.00    -0.271 OA
ATOM     16  N   TRP     2      57.318  42.022  45.809  1.00  0.00    -0.337 N 
ATOM     17  H   TRP     2      56.976  42.540  45.027  1.00 99.99     0.164 HD
BRANCH  16  18
ATOM     18  CA  TRP     2      57.934  42.853  46.870  1.00  0.00     0.164 C 
BRANCH  18  19
ATOM     19  C   TRP     2      56.923  43.494  47.850  1.00  0.00     0.251 C 
ATOM     20  N   ARG     3      56.396  42.669  48.756  1.00  0.00    -0.338 N 
ATOM     21  H   ARG     3      56.530  41.684  48.691  1.00 99.99     0.164 HD
ATOM     22  O   TRP     2      56.851  44.720  47.928  1.00  0.00    -0.271 OA
BRANCH  20  23
ATOM     23  CA  ARG     3      55.455  43.065  49.828  1.00  0.00     0.159 C 
BRANCH  23  24
ATOM     24  CB  ARG     3      54.252  42.114  49.676  1.00  0.00     0.034 C 
BRANCH  24  25
ATOM     25  CG  ARG     3      54.557  40.709  49.141  1.00  0.00     0.027 C 
BRANCH  25  26
ATOM     26  CD  ARG     3      53.468  40.202  48.193  1.00  0.00     0.116 C 
BRANCH  26  27
ATOM     27  NE  ARG     3      52.203  40.088  48.939  1.00  0.00    -0.212 N 
ATOM     28  HE  ARG     3      51.745  40.952  49.125  1.00 99.99     0.178 HD
ATOM     29  CZ  ARG     3      51.604  38.954  49.316  1.00  0.00     0.666 C 
ATOM     30  NH1 ARG     3      52.068  37.756  48.989  1.00  0.00    -0.235 N 
ATOM     31  NH2 ARG     3      50.524  38.992  50.077  1.00  0.00    -0.235 N 
ATOM     32 1HH1 ARG     3      51.605  36.925  49.291  1.00 99.99     0.174 HD
ATOM     33 2HH1 ARG     3      52.871  37.681  48.394  1.00 99.99     0.174 HD
ATOM     34 2HH2 ARG     3      50.136  39.865  50.364  1.00 99.99     0.174 HD
ATOM     35 1HH2 ARG     3      50.096  38.132  50.350  1.00 99.99     0.174 HD
ENDBRANCH  26  27
ENDBRANCH  25  26
ENDBRANCH  24  25
ENDBRANCH  23  24
BRANCH  23  36
ATOM     36  C   ARG     3      56.045  43.133  51.267  1.00  0.00     0.251 C 
ATOM     37  N   TRP     4      57.025  42.278  51.540  1.00  0.00    -0.337 N 
ATOM     38  H   TRP     4      57.171  41.462  50.982  1.00 99.99     0.164 HD
ATOM     39  O   ARG     3      55.623  43.921  52.109  1.00  0.00    -0.271 OA
BRANCH  37  40
ATOM     40  CA  TRP     4      57.879  42.329  52.747  1.00  0.00     0.164 C 
BRANCH  40  41
ATOM     41  CB  TRP     4      57.548  41.105  53.615  1.00  0.00     0.059 C 
BRANCH  41  42
ATOM     42  CG  TRP     4      56.152  40.538  53.345  1.00  0.00    -0.016 A 
ATOM     43  CD2 TRP     4      55.863  39.499  52.477  1.00  0.00    -0.001 A 
ATOM     44  CE2 TRP     4      54.578  39.072  52.772  1.00  0.00     0.042 A 
ATOM     45  CE3 TRP     4      56.649  38.814  51.565  1.00  0.00     0.014 A 
ATOM     46  CZ2 TRP     4      54.079  37.932  52.151  1.00  0.00     0.030 A 
ATOM     47  NE1 TRP     4      54.128  39.848  53.759  1.00  0.00    -0.365 N 
ATOM     48  CH2 TRP     4      54.871  37.227  51.250  1.00  0.00     0.002 A 
ATOM     49  CZ3 TRP     4      56.155  37.671  50.953  1.00  0.00     0.001 A 
ATOM     50  HE1 TRP     4      53.246  39.752  54.220  1.00 99.99     0.165 HD
ATOM     51  CD1 TRP     4      55.071  40.731  54.094  1.00  0.00     0.097 A 
ENDBRANCH  41  42
ENDBRANCH  40  41
BRANCH  40  52
ATOM     52  C   TRP     4      59.381  42.386  52.380  1.00  0.00     0.251 C 
ATOM     53  O   TRP     4      60.149  43.148  52.961  1.00  0.00    -0.271 OA
ATOM     54  N   ILE     5      59.780  41.532  51.435  1.00  0.00    -0.338 N 
ATOM     55  H   ILE     5      59.133  40.886  51.033  1.00 99.99     0.164 HD
BRANCH  54  56
ATOM     56  CA  ILE     5      61.148  41.442  50.866  1.00  0.00     0.159 C 
BRANCH  56  57
ATOM     57  CB  ILE     5      61.202  40.242  49.896  1.00  0.00     0.029 C 
ATOM     58  CG2 ILE     5      62.079  39.108  50.454  1.00  0.00     0.002 C 
BRANCH  57  59
ATOM     59  CG1 ILE     5      59.782  39.717  49.608  1.00  0.00     0.002 C 
ATOM     60  CD  ILE     5      59.739  38.434  48.767  1.00  0.00     0.000 C 
ENDBRANCH  57  59
ENDBRANCH  56  57
BRANCH  56  61
ATOM     61  C   ILE     5      61.524  42.782  50.185  1.00  0.00     0.251 C 
ATOM     62  O   ILE     5      60.832  43.256  49.287  1.00  0.00    -0.271 OA
ATOM     63  N   TRP     6      62.515  43.446  50.778  1.00  0.00    -0.336 N 
ATOM     64  H   TRP     6      62.780  43.238  51.720  1.00 99.99     0.164 HD
BRANCH  63  65
ATOM     65  CA  TRP     6      63.301  44.537  50.165  1.00  0.00     0.173 C 
BRANCH  65  66
ATOM     66  C   TRP     6      62.529  45.842  50.437  1.00  0.00     0.207 C 
ATOM     67  O   TRP     6      62.182  46.549  49.465  1.00 99.99    -0.646 OA
ATOM     68  OXT TRP     6      62.396  46.145  51.647  1.00 99.99    -0.646 OA
ENDBRANCH  65  66
BRANCH  65  69
ATOM     69  CB  TRP     6      63.320  44.293  48.649  1.00  0.00     0.060 C 
BRANCH  69  70
ATOM     70  CG  TRP     6      64.692  44.489  47.999  1.00  0.00    -0.016 A 
ATOM     71  CD2 TRP     6      65.377  43.624  47.154  1.00  0.00    -0.001 A 
ATOM     72  CE3 TRP     6      65.031  42.436  46.525  1.00  0.00     0.014 A 
ATOM     73  CE2 TRP     6      66.575  44.250  46.842  1.00  0.00     0.042 A 
ATOM     74  CZ3 TRP     6      65.863  41.893  45.555  1.00  0.00     0.001 A 
ATOM     75  CH2 TRP     6      67.063  42.519  45.241  1.00  0.00     0.002 A 
ATOM     76  CZ2 TRP     6      67.423  43.695  45.892  1.00  0.00     0.030 A 
ATOM     77  NE1 TRP     6      66.599  45.412  47.492  1.00  0.00    -0.365 N 
ATOM     78  HE1 TRP     6      67.333  46.088  47.445  1.00 99.99     0.165 HD
ATOM     79  CD1 TRP     6      65.470  45.551  48.185  1.00  0.00     0.097 A 
ENDBRANCH  69  70
ENDBRANCH  65  69
ENDBRANCH  63  65
ENDBRANCH  56  61
ENDBRANCH  54  56
ENDBRANCH  40  52
ENDBRANCH  37  40
ENDBRANCH  23  36
ENDBRANCH  20  23
ENDBRANCH  18  19
BRANCH  18  80
ATOM     80  CB  TRP     2      58.855  43.880  46.198  1.00  0.00     0.059 C 
BRANCH  80  81
ATOM     81  CG  TRP     2      59.741  43.263  45.117  1.00  0.00    -0.016 A 
ATOM     82  CD2 TRP     2      60.635  42.220  45.293  1.00  0.00    -0.001 A 
ATOM     83  CE3 TRP     2      61.057  41.510  46.409  1.00  0.00     0.014 A 
ATOM     84  CE2 TRP     2      61.121  41.908  44.033  1.00  0.00     0.042 A 
ATOM     85  CZ3 TRP     2      61.975  40.479  46.260  1.00  0.00     0.001 A 
ATOM     86  CH2 TRP     2      62.460  40.159  44.996  1.00  0.00     0.002 A 
ATOM     87  CZ2 TRP     2      62.035  40.875  43.883  1.00  0.00     0.030 A 
ATOM     88  NE1 TRP     2      60.539  42.730  43.163  1.00  0.00    -0.365 N 
ATOM     89  HE1 TRP     2      60.685  42.726  42.173  1.00 99.99     0.165 HD
ATOM     90  CD1 TRP     2      59.713  43.549  43.816  1.00  0.00     0.097 A 
ENDBRANCH  80  81
ENDBRANCH  18  80
ENDBRANCH  16  18
ENDBRANCH   5  14
ENDBRANCH   1   5
TORSDOF 29
ENDMDL
MODEL 2
REMARK VINA RESULT:      -6.1      2.023      6.416
REMARK  29 active torsions:
REMARK  status: ('A' for Active; 'I' for Inactive)
REMARK    1  A    between atoms: N_1  and  CA_2 
REMARK    2  A    between atoms: CA_2  and  CB_5 
REMARK    3  A    between atoms: CA_2  and  C_3 
REMARK       I    between atoms: C_3  and  N_16 
REMARK    4  A    between atoms: CB_5  and  CG_6 
REMARK    5  A    between atoms: CG_6  and  CD_7 
REMARK    6  A    between atoms: CD_7  and  CE_8 
REMARK    7  A    between atoms: CE_8  and  NZ_9 
REMARK    8  A    between atoms: N_16  and  CA_17 
REMARK    9  A    between atoms: CA_17  and  C_18 
REMARK   10  A    between atoms: CA_17  and  CB_20 
REMARK       I    between atoms: C_18  and  N_32 
REMARK   11  A    between atoms: CB_20  and  CG_21 
REMARK   12  A    between atoms: N_32  and  CA_33 
REMARK   13  A    between atoms: CA_33  and  CB_36 
REMARK   14  A    between atoms: CA_33  and  C_34 
REMARK       I    between atoms: C_34  and  N_49 
REMARK   15  A    between atoms: CB_36  and  CG_37 
REMARK   16  A    between atoms: CG_37  and  CD_38 
REMARK   17  A    between atoms: CD_38  and  NE_39 
REMARK       I    between atoms: NE_39  and  CZ_40 
REMARK       I    between atoms: CZ_40  and  NH1_41 
REMARK   18  A    between atoms: N_49  and  CA_50 
REMARK   19  A    between atoms: CA_50  and  CB_53 
REMARK   20  A    between atoms: CA_50  and  C_51 
REMARK       I    between atoms: C_51  and  N_65 
REMARK   21  A    between atoms: CB_53  and  CG_54 
REMARK   22  A    between atoms: N_65  and  CA_66 
REMARK   23  A    between atoms: CA_66  and  CB_69 
REMARK   24  A    between atoms: CA_66  and  C_67 
REMARK       I    between atoms: C_67  and  N_74 
REMARK   25  A    between atoms: CB_69  and  CG1_70 
REMARK   26  A    between atoms: N_74  and  CA_75 
REMARK   27  A    between atoms: CA_75  and  C_76 
REMARK   28  A    between atoms: CA_75  and  CB_78 
REMARK   29  A    between atoms: CB_78  and  CG_79 
ROOT
ATOM      1  N   LYS     1      59.877  43.658  46.947  1.00  0.00    -0.058 N 
ATOM      2  H1  LYS     1      59.884  43.473  47.930  1.00 99.99     0.276 HD
ATOM      3  H2  LYS     1      60.410  42.952  46.492  1.00 99.99     0.276 HD
ATOM      4  H3  LYS     1      60.374  44.499  46.753  1.00 99.99     0.276 HD
ENDROOT
BRANCH   1   5
ATOM      5  CA  LYS     1      58.479  43.698  46.432  1.00  0.00     0.255 C 
BRANCH   5   6
ATOM      6  CB  LYS     1      58.230  42.540  45.448  1.00  0.00     0.040 C 
BRANCH   6   7
ATOM      7  CG  LYS     1      58.985  42.615  44.117  1.00  0.00     0.004 C 
BRANCH   7   8
ATOM      8  CD  LYS     1      59.116  41.209  43.517  1.00  0.00     0.032 C 
BRANCH   8   9
ATOM      9  CE  LYS     1      58.036  40.921  42.469  1.00  0.00     0.206 C 
BRANCH   9  10
ATOM     10  NZ  LYS     1      57.980  41.976  41.443  1.00  0.00    -0.064 N 
ATOM     11  HZ3 LYS     1      57.757  42.851  41.872  1.00 99.99     0.275 HD
ATOM     12  HZ1 LYS     1      58.869  42.051  40.989  1.00 99.99     0.275 HD
ATOM     13  HZ2 LYS     1      57.281  41.753  40.763  1.00 99.99     0.275 HD
ENDBRANCH   9  10
ENDBRANCH   8   9
ENDBRANCH   7   8
ENDBRANCH   6   7
ENDBRANCH   5   6
BRANCH   5  14
ATOM     14  C   LYS     1      57.341  43.677  47.493  1.00  0.00     0.259 C 
ATOM     15  O   LYS     1      56.835  44.727  47.896  1.00  0.00    -0.271 OA
ATOM     16  N   TRP     2      57.090  42.521  48.115  1.00  0.00    -0.337 N 
ATOM     17  H   TRP     2      57.711  41.740  48.066  1.00 99.99     0.164 HD
BRANCH  16  18
ATOM     18  CA  TRP     2      55.897  42.302  48.967  1.00  0.00     0.164 C 
BRANCH  18  19
ATOM     19  C   TRP     2      56.133  42.551  50.475  1.00  0.00     0.251 C 
ATOM     20  N   ARG     3      56.977  41.708  51.073  1.00  0.00    -0.338 N 
ATOM     21  H   ARG     3      57.298  40.888  50.607  1.00 99.99     0.164 HD
ATOM     22  O   TRP     2      55.769  43.613  50.978  1.00  0.00    -0.271 OA
BRANCH  20  23
ATOM     23  CA  ARG     3      57.400  41.783  52.490  1.00  0.00     0.159 C 
BRANCH  23  24
ATOM     24  CB  ARG     3      57.177  40.365  53.049  1.00  0.00     0.034 C 
BRANCH  24  25
ATOM     25  CG  ARG     3      57.330  39.208  52.055  1.00  0.00     0.027 C 
BRANCH  25  26
ATOM     26  CD  ARG     3      56.032  38.413  51.887  1.00  0.00     0.116 C 
BRANCH  26  27
ATOM     27  NE  ARG     3      54.922  39.186  52.469  1.00  0.00    -0.212 N 
ATOM     28  HE  ARG     3      55.176  40.076  52.835  1.00 99.99     0.178 HD
ATOM     29  CZ  ARG     3      53.633  38.832  52.487  1.00  0.00     0.666 C 
ATOM     30  NH1 ARG     3      53.184  37.732  51.901  1.00  0.00    -0.235 N 
ATOM     31  NH2 ARG     3      52.749  39.568  53.140  1.00  0.00    -0.235 N 
ATOM     32 1HH1 ARG     3      52.218  37.488  51.936  1.00 99.99     0.174 HD
ATOM     33 2HH1 ARG     3      53.816  37.158  51.376  1.00 99.99     0.174 HD
ATOM     34 2HH2 ARG     3      53.031  40.401  53.610  1.00 99.99     0.174 HD
ATOM     35 1HH2 ARG     3      51.793  39.282  53.143  1.00 99.99     0.174 HD
ENDBRANCH  26  27
ENDBRANCH  25  26
ENDBRANCH  24  25
ENDBRANCH  23  24
BRANCH  23  36
ATOM     36  C   ARG     3      58.821  42.363  52.750  1.00  0.00     0.251 C 
ATOM     37  N   TRP     4      59.838  41.681  52.232  1.00  0.00    -0.337 N 
ATOM     38  H   TRP     4      59.734  40.726  51.957  1.00 99.99     0.164 HD
ATOM     39  O   ARG     3      58.999  43.384  53.410  1.00  0.00    -0.271 OA
BRANCH  37  40
ATOM     40  CA  TRP     4      61.232  42.171  52.154  1.00  0.00     0.164 C 
BRANCH  40  41
ATOM     41  CB  TRP     4      62.165  41.003  52.507  1.00  0.00     0.059 C 
BRANCH  41  42
ATOM     42  CG  TRP     4      61.670  39.656  51.977  1.00  0.00    -0.016 A 
ATOM     43  CD2 TRP     4      62.153  39.012  50.851  1.00  0.00    -0.001 A 
ATOM     44  CE2 TRP     4      61.700  37.703  50.910  1.00  0.00     0.042 A 
ATOM     45  CE3 TRP     4      63.045  39.413  49.870  1.00  0.00     0.014 A 
ATOM     46  CZ2 TRP     4      62.160  36.779  49.977  1.00  0.00     0.030 A 
ATOM     47  NE1 TRP     4      60.963  37.596  52.015  1.00  0.00    -0.365 N 
ATOM     48  CH2 TRP     4      63.074  37.171  49.002  1.00  0.00     0.002 A 
ATOM     49  CZ3 TRP     4      63.513  38.490  48.946  1.00  0.00     0.001 A 
ATOM     50  HE1 TRP     4      60.538  36.757  52.355  1.00 99.99     0.165 HD
ATOM     51  CD1 TRP     4      60.939  38.771  52.648  1.00  0.00     0.097 A 
ENDBRANCH  41  42
ENDBRANCH  40  41
BRANCH  40  52
ATOM     52  C   TRP     4      61.550  42.762  50.760  1.00  0.00     0.251 C 
ATOM     53  O   TRP     4      60.692  42.818  49.883  1.00  0.00    -0.271 OA
ATOM     54  N   ILE     5      62.786  43.238  50.599  1.00  0.00    -0.338 N 
ATOM     55  H   ILE     5      63.433  43.229  51.361  1.00 99.99     0.164 HD
BRANCH  54  56
ATOM     56  CA  ILE     5      63.348  43.791  49.342  1.00  0.00     0.159 C 
BRANCH  56  57
ATOM     57  CB  ILE     5      64.416  44.848  49.701  1.00  0.00     0.029 C 
ATOM     58  CG2 ILE     5      65.283  45.204  48.481  1.00  0.00     0.002 C 
BRANCH  57  59
ATOM     59  CG1 ILE     5      63.749  46.118  50.263  1.00  0.00     0.002 C 
ATOM     60  CD  ILE     5      62.327  46.369  49.744  1.00  0.00     0.000 C 
ENDBRANCH  57  59
ENDBRANCH  56  57
BRANCH  56  61
ATOM     61  C   ILE     5      63.911  42.643  48.468  1.00  0.00     0.251 C 
ATOM     62  O   ILE     5      64.958  42.071  48.763  1.00  0.00    -0.271 OA
ATOM     63  N   TRP     6      63.084  42.213  47.516  1.00  0.00    -0.336 N 
ATOM     64  H   TRP     6      62.105  42.416  47.558  1.00 99.99     0.164 HD
BRANCH  63  65
ATOM     65  CA  TRP     6      63.475  41.405  46.342  1.00  0.00     0.173 C 
BRANCH  65  66
ATOM     66  C   TRP     6      64.378  42.301  45.472  1.00  0.00     0.207 C 
ATOM     67  O   TRP     6      63.848  43.208  44.792  1.00 99.99    -0.646 OA
ATOM     68  OXT TRP     6      65.589  41.976  45.442  1.00 99.99    -0.646 OA
ENDBRANCH  65  66
BRANCH  65  69
ATOM     69  CB  TRP     6      62.196  41.094  45.553  1.00  0.00     0.060 C 
BRANCH  69  70
ATOM     70  CG  TRP     6      61.561  39.743  45.893  1.00  0.00    -0.016 A 
ATOM     71  CD2 TRP     6      60.706  39.432  46.943  1.00  0.00    -0.001 A 
ATOM     72  CE3 TRP     6      60.051  40.201  47.895  1.00  0.00     0.014 A 
ATOM     73  CE2 TRP     6      60.416  38.081  46.825  1.00  0.00     0.042 A 
ATOM     74  CZ3 TRP     6      59.078  39.630  48.704  1.00  0.00     0.001 A 
ATOM     75  CH2 TRP     6      58.786  38.276  48.586  1.00  0.00     0.002 A 
ATOM     76  CZ2 TRP     6      59.463  37.500  47.651  1.00  0.00     0.030 A 
ATOM     77  NE1 TRP     6      61.088  37.620  45.773  1.00  0.00    -0.365 N 
ATOM     78  HE1 TRP     6      61.061  36.680  45.432  1.00 99.99     0.165 HD
ATOM     79  CD1 TRP     6      61.774  38.618  45.218  1.00  0.00     0.097 A 
ENDBRANCH  69  70
ENDBRANCH  65  69
ENDBRANCH  63  65
ENDBRANCH  56  61
ENDBRANCH  54  56
ENDBRANCH  40  52
ENDBRANCH  37  40
ENDBRANCH  23  36
ENDBRANCH  20  23
ENDBRANCH  18  19
BRANCH  18  80
ATOM     80  CB  TRP     2      55.347  40.902  48.666  1.00  0.00     0.059 C 
BRANCH  80  81
ATOM     81  CG  TRP     2      53.872  40.753  49.039  1.00  0.00    -0.016 A 
ATOM     82  CD2 TRP     2      53.059  39.674  48.731  1.00  0.00    -0.001 A 
ATOM     83  CE3 TRP     2      53.254  38.522  47.982  1.00  0.00     0.014 A 
ATOM     84  CE2 TRP     2      51.850  39.906  49.368  1.00  0.00     0.042 A 
ATOM     85  CZ3 TRP     2      52.228  37.593  47.871  1.00  0.00     0.001 A 
ATOM     86  CH2 TRP     2      51.015  37.818  48.514  1.00  0.00     0.002 A 
ATOM     87  CZ2 TRP     2      50.825  38.975  49.260  1.00  0.00     0.030 A 
ATOM     88  NE1 TRP     2      51.951  41.063  50.016  1.00  0.00    -0.365 N 
ATOM     89  HE1 TRP     2      51.236  41.478  50.579  1.00 99.99     0.165 HD
ATOM     90  CD1 TRP     2      53.166  41.575  49.813  1.00  0.00     0.097 A 
ENDBRANCH  80  81
ENDBRANCH  18  80
ENDBRANCH  16  18
ENDBRANCH   5  14
ENDBRANCH   1   5
TORSDOF 29
ENDMDL
MODEL 3
REMARK VINA RESULT:      -6.0      1.641      2.558
REMARK  29 active torsions:
REMARK  status: ('A' for Active; 'I' for Inactive)
REMARK    1  A    between atoms: N_1  and  CA_2 
REMARK    2  A    between atoms: CA_2  and  CB_5 
REMARK    3  A    between atoms: CA_2  and  C_3 
REMARK       I    between atoms: C_3  and  N_16 
REMARK    4  A    between atoms: CB_5  and  CG_6 
REMARK    5  A    between atoms: CG_6  and  CD_7 
REMARK    6  A    between atoms: CD_7  and  CE_8 
REMARK    7  A    between atoms: CE_8  and  NZ_9 
REMARK    8  A    between atoms: N_16  and  CA_17 
REMARK    9  A    between atoms: CA_17  and  C_18 
REMARK   10  A    between atoms: CA_17  and  CB_20 
REMARK       I    between atoms: C_18  and  N_32 
REMARK   11  A    between atoms: CB_20  and  CG_21 
REMARK   12  A    between atoms: N_32  and  CA_33 
REMARK   13  A    between atoms: CA_33  and  CB_36 
REMARK   14  A    between atoms: CA_33  and  C_34 
REMARK       I    between atoms: C_34  and  N_49 
REMARK   15  A    between atoms: CB_36  and  CG_37 
REMARK   16  A    between atoms: CG_37  and  CD_38 
REMARK   17  A    between atoms: CD_38  and  NE_39 
REMARK       I    between atoms: NE_39  and  CZ_40 
REMARK       I    between atoms: CZ_40  and  NH1_41 
REMARK   18  A    between atoms: N_49  and  CA_50 
REMARK   19  A    between atoms: CA_50  and  CB_53 
REMARK   20  A    between atoms: CA_50  and  C_51 
REMARK       I    between atoms: C_51  and  N_65 
REMARK   21  A    between atoms: CB_53  and  CG_54 
REMARK   22  A    between atoms: N_65  and  CA_66 
REMARK   23  A    between atoms: CA_66  and  CB_69 
REMARK   24  A    between atoms: CA_66  and  C_67 
REMARK       I    between atoms: C_67  and  N_74 
REMARK   25  A    between atoms: CB_69  and  CG1_70 
REMARK   26  A    between atoms: N_74  and  CA_75 
REMARK   27  A    between atoms: CA_75  and  C_76 
REMARK   28  A    between atoms: CA_75  and  CB_78 
REMARK   29  A    between atoms: CB_78  and  CG_79 
ROOT
ATOM      1  N   LYS     1      55.275  39.800  44.407  1.00  0.00    -0.058 N 
ATOM      2  H1  LYS     1      54.784  40.670  44.368  1.00 99.99     0.276 HD
ATOM      3  H2  LYS     1      55.121  39.315  43.552  1.00 99.99     0.276 HD
ATOM      4  H3  LYS     1      54.867  39.208  45.098  1.00 99.99     0.276 HD
ENDROOT
BRANCH   1   5
ATOM      5  CA  LYS     1      56.727  40.027  44.648  1.00  0.00     0.255 C 
BRANCH   5   6
ATOM      6  CB  LYS     1      57.347  40.846  43.500  1.00  0.00     0.040 C 
BRANCH   6   7
ATOM      7  CG  LYS     1      58.463  40.155  42.709  1.00  0.00     0.004 C 
BRANCH   7   8
ATOM      8  CD  LYS     1      58.198  40.304  41.204  1.00  0.00     0.032 C 
BRANCH   8   9
ATOM      9  CE  LYS     1      58.094  41.771  40.775  1.00  0.00     0.206 C 
BRANCH   9  10
ATOM     10  NZ  LYS     1      58.589  41.971  39.402  1.00  0.00    -0.064 N 
ATOM     11  HZ3 LYS     1      58.000  42.623  38.923  1.00 99.99     0.275 HD
ATOM     12  HZ1 LYS     1      59.522  42.332  39.430  1.00 99.99     0.275 HD
ATOM     13  HZ2 LYS     1      58.587  41.100  38.909  1.00 99.99     0.275 HD
ENDBRANCH   9  10
ENDBRANCH   8   9
ENDBRANCH   7   8
ENDBRANCH   6   7
ENDBRANCH   5   6
BRANCH   5  14
ATOM     14  C   LYS     1      57.116  40.716  45.988  1.00  0.00     0.259 C 
ATOM     15  O   LYS     1      57.098  40.086  47.048  1.00  0.00    -0.271 OA
ATOM     16  N   TRP     2      57.243  42.046  45.991  1.00  0.00    -0.337 N 
ATOM     17  H   TRP     2      56.923  42.617  45.237  1.00 99.99     0.164 HD
BRANCH  16  18
ATOM     18  CA  TRP     2      57.827  42.801  47.125  1.00  0.00     0.164 C 
BRANCH  18  19
ATOM     19  C   TRP     2      56.793  43.315  48.153  1.00  0.00     0.251 C 
ATOM     20  N   ARG     3      56.415  42.435  49.081  1.00  0.00    -0.338 N 
ATOM     21  H   ARG     3      56.666  41.473  49.007  1.00 99.99     0.164 HD
ATOM     22  O   TRP     2      56.573  44.523  48.238  1.00  0.00    -0.271 OA
BRANCH  20  23
ATOM     23  CA  ARG     3      55.484  42.715  50.198  1.00  0.00     0.159 C 
BRANCH  23  24
ATOM     24  CB  ARG     3      54.155  42.053  49.786  1.00  0.00     0.034 C 
BRANCH  24  25
ATOM     25  CG  ARG     3      54.025  40.551  50.069  1.00  0.00     0.027 C 
BRANCH  25  26
ATOM     26  CD  ARG     3      52.635  40.014  49.719  1.00  0.00     0.116 C 
BRANCH  26  27
ATOM     27  NE  ARG     3      51.690  40.415  50.775  1.00  0.00    -0.212 N 
ATOM     28  HE  ARG     3      51.381  41.360  50.728  1.00 99.99     0.178 HD
ATOM     29  CZ  ARG     3      51.176  39.622  51.721  1.00  0.00     0.666 C 
ATOM     30  NH1 ARG     3      51.420  38.321  51.776  1.00  0.00    -0.235 N 
ATOM     31  NH2 ARG     3      50.420  40.132  52.679  1.00  0.00    -0.235 N 
ATOM     32 1HH1 ARG     3      51.030  37.754  52.499  1.00 99.99     0.174 HD
ATOM     33 2HH1 ARG     3      51.969  37.889  51.058  1.00 99.99     0.174 HD
ATOM     34 2HH2 ARG     3      50.211  41.107  52.695  1.00 99.99     0.174 HD
ATOM     35 1HH2 ARG     3      50.051  39.522  53.377  1.00 99.99     0.174 HD
ENDBRANCH  26  27
ENDBRANCH  25  26
ENDBRANCH  24  25
ENDBRANCH  23  24
BRANCH  23  36
ATOM     36  C   ARG     3      55.984  42.328  51.619  1.00  0.00     0.251 C 
ATOM     37  N   TRP     4      57.017  41.492  51.672  1.00  0.00    -0.337 N 
ATOM     38  H   TRP     4      57.263  40.924  50.887  1.00 99.99     0.164 HD
ATOM     39  O   ARG     3      55.449  42.756  52.639  1.00  0.00    -0.271 OA
BRANCH  37  40
ATOM     40  CA  TRP     4      57.794  41.184  52.892  1.00  0.00     0.164 C 
BRANCH  40  41
ATOM     41  CB  TRP     4      58.211  39.707  52.828  1.00  0.00     0.059 C 
BRANCH  41  42
ATOM     42  CG  TRP     4      57.872  39.044  51.491  1.00  0.00    -0.016 A 
ATOM     43  CD2 TRP     4      58.768  38.814  50.461  1.00  0.00    -0.001 A 
ATOM     44  CE2 TRP     4      58.167  37.912  49.598  1.00  0.00     0.042 A 
ATOM     45  CE3 TRP     4      60.085  39.202  50.281  1.00  0.00     0.014 A 
ATOM     46  CZ2 TRP     4      58.904  37.381  48.544  1.00  0.00     0.030 A 
ATOM     47  NE1 TRP     4      56.958  37.645  50.093  1.00  0.00    -0.365 N 
ATOM     48  CH2 TRP     4      60.234  37.751  48.370  1.00  0.00     0.002 A 
ATOM     49  CZ3 TRP     4      60.825  38.665  49.236  1.00  0.00     0.001 A 
ATOM     50  HE1 TRP     4      56.304  36.991  49.716  1.00 99.99     0.165 HD
ATOM     51  CD1 TRP     4      56.781  38.333  51.224  1.00  0.00     0.097 A 
ENDBRANCH  41  42
ENDBRANCH  40  41
BRANCH  40  52
ATOM     52  C   TRP     4      59.015  42.122  53.041  1.00  0.00     0.251 C 
ATOM     53  O   TRP     4      58.877  43.296  53.374  1.00  0.00    -0.271 OA
ATOM     54  N   ILE     5      60.207  41.562  52.828  1.00  0.00    -0.338 N 
ATOM     55  H   ILE     5      60.277  40.587  52.620  1.00 99.99     0.164 HD
BRANCH  54  56
ATOM     56  CA  ILE     5      61.514  42.265  52.846  1.00  0.00     0.159 C 
BRANCH  56  57
ATOM     57  CB  ILE     5      62.611  41.260  53.262  1.00  0.00     0.029 C 
ATOM     58  CG2 ILE     5      62.977  41.413  54.748  1.00  0.00     0.002 C 
BRANCH  57  59
ATOM     59  CG1 ILE     5      62.155  39.816  52.978  1.00  0.00     0.002 C 
ATOM     60  CD  ILE     5      63.247  38.909  52.395  1.00  0.00     0.000 C 
ENDBRANCH  57  59
ENDBRANCH  56  57
BRANCH  56  61
ATOM     61  C   ILE     5      61.784  42.909  51.463  1.00  0.00     0.251 C 
ATOM     62  O   ILE     5      61.130  42.589  50.473  1.00  0.00    -0.271 OA
ATOM     63  N   TRP     6      62.619  43.947  51.488  1.00  0.00    -0.336 N 
ATOM     64  H   TRP     6      62.813  44.427  52.343  1.00 99.99     0.164 HD
BRANCH  63  65
ATOM     65  CA  TRP     6      63.318  44.511  50.315  1.00  0.00     0.173 C 
BRANCH  65  66
ATOM     66  C   TRP     6      63.084  46.033  50.354  1.00  0.00     0.207 C 
ATOM     67  O   TRP     6      62.589  46.539  51.385  1.00 99.99    -0.646 OA
ATOM     68  OXT TRP     6      63.324  46.641  49.283  1.00 99.99    -0.646 OA
ENDBRANCH  65  66
BRANCH  65  69
ATOM     69  CB  TRP     6      62.636  43.948  49.060  1.00  0.00     0.060 C 
BRANCH  69  70
ATOM     70  CG  TRP     6      63.580  43.200  48.115  1.00  0.00    -0.016 A 
ATOM     71  CD2 TRP     6      64.134  41.936  48.272  1.00  0.00    -0.001 A 
ATOM     72  CE3 TRP     6      63.931  40.916  49.191  1.00  0.00     0.014 A 
ATOM     73  CE2 TRP     6      64.922  41.713  47.153  1.00  0.00     0.042 A 
ATOM     74  CZ3 TRP     6      64.483  39.661  48.974  1.00  0.00     0.001 A 
ATOM     75  CH2 TRP     6      65.273  39.435  47.852  1.00  0.00     0.002 A 
ATOM     76  CZ2 TRP     6      65.499  40.466  46.946  1.00  0.00     0.030 A 
ATOM     77  NE1 TRP     6      64.852  42.802  46.392  1.00  0.00    -0.365 N 
ATOM     78  HE1 TRP     6      65.306  42.925  45.509  1.00 99.99     0.165 HD
ATOM     79  CD1 TRP     6      64.048  43.692  46.972  1.00  0.00     0.097 A 
ENDBRANCH  69  70
ENDBRANCH  65  69
ENDBRANCH  63  65
ENDBRANCH  56  61
ENDBRANCH  54  56
ENDBRANCH  40  52
ENDBRANCH  37  40
ENDBRANCH  23  36
ENDBRANCH  20  23
ENDBRANCH  18  19
BRANCH  18  80
ATOM     80  CB  TRP     2      58.711  43.916  46.551  1.00  0.00     0.059 C 
BRANCH  80  81
ATOM     81  CG  TRP     2      59.623  43.429  45.425  1.00  0.00    -0.016 A 
ATOM     82  CD2 TRP     2      60.470  42.334  45.479  1.00  0.00    -0.001 A 
ATOM     83  CE3 TRP     2      60.813  41.449  46.491  1.00  0.00     0.014 A 
ATOM     84  CE2 TRP     2      61.001  42.193  44.207  1.00  0.00     0.042 A 
ATOM     85  CZ3 TRP     2      61.698  40.412  46.226  1.00  0.00     0.001 A 
ATOM     86  CH2 TRP     2      62.230  40.263  44.949  1.00  0.00     0.002 A 
ATOM     87  CZ2 TRP     2      61.883  41.154  43.940  1.00  0.00     0.030 A 
ATOM     88  NE1 TRP     2      60.492  43.159  43.447  1.00  0.00    -0.365 N 
ATOM     89  HE1 TRP     2      60.683  43.295  42.475  1.00 99.99     0.165 HD
ATOM     90  CD1 TRP     2      59.666  43.906  44.183  1.00  0.00     0.097 A 
ENDBRANCH  80  81
ENDBRANCH  18  80
ENDBRANCH  16  18
ENDBRANCH   5  14
ENDBRANCH   1   5
TORSDOF 29
ENDMDL
MODEL 4
REMARK VINA RESULT:      -6.0      2.225      9.703
REMARK  29 active torsions:
REMARK  status: ('A' for Active; 'I' for Inactive)
REMARK    1  A    between atoms: N_1  and  CA_2 
REMARK    2  A    between atoms: CA_2  and  CB_5 
REMARK    3  A    between atoms: CA_2  and  C_3 
REMARK       I    between atoms: C_3  and  N_16 
REMARK    4  A    between atoms: CB_5  and  CG_6 
REMARK    5  A    between atoms: CG_6  and  CD_7 
REMARK    6  A    between atoms: CD_7  and  CE_8 
REMARK    7  A    between atoms: CE_8  and  NZ_9 
REMARK    8  A    between atoms: N_16  and  CA_17 
REMARK    9  A    between atoms: CA_17  and  C_18 
REMARK   10  A    between atoms: CA_17  and  CB_20 
REMARK       I    between atoms: C_18  and  N_32 
REMARK   11  A    between atoms: CB_20  and  CG_21 
REMARK   12  A    between atoms: N_32  and  CA_33 
REMARK   13  A    between atoms: CA_33  and  CB_36 
REMARK   14  A    between atoms: CA_33  and  C_34 
REMARK       I    between atoms: C_34  and  N_49 
REMARK   15  A    between atoms: CB_36  and  CG_37 
REMARK   16  A    between atoms: CG_37  and  CD_38 
REMARK   17  A    between atoms: CD_38  and  NE_39 
REMARK       I    between atoms: NE_39  and  CZ_40 
REMARK       I    between atoms: CZ_40  and  NH1_41 
REMARK   18  A    between atoms: N_49  and  CA_50 
REMARK   19  A    between atoms: CA_50  and  CB_53 
REMARK   20  A    between atoms: CA_50  and  C_51 
REMARK       I    between atoms: C_51  and  N_65 
REMARK   21  A    between atoms: CB_53  and  CG_54 
REMARK   22  A    between atoms: N_65  and  CA_66 
REMARK   23  A    between atoms: CA_66  and  CB_69 
REMARK   24  A    between atoms: CA_66  and  C_67 
REMARK       I    between atoms: C_67  and  N_74 
REMARK   25  A    between atoms: CB_69  and  CG1_70 
REMARK   26  A    between atoms: N_74  and  CA_75 
REMARK   27  A    between atoms: CA_75  and  C_76 
REMARK   28  A    between atoms: CA_75  and  CB_78 
REMARK   29  A    between atoms: CB_78  and  CG_79 
ROOT
ATOM      1  N   LYS     1      57.608  38.118  56.040  1.00  0.00    -0.058 N 
ATOM      2  H1  LYS     1      57.920  37.172  56.116  1.00 99.99     0.276 HD
ATOM      3  H2  LYS     1      58.405  38.714  56.065  1.00 99.99     0.276 HD
ATOM      4  H3  LYS     1      57.090  38.374  56.852  1.00 99.99     0.276 HD
ENDROOT
BRANCH   1   5
ATOM      5  CA  LYS     1      56.824  38.314  54.789  1.00  0.00     0.255 C 
BRANCH   5   6
ATOM      6  CB  LYS     1      55.408  38.827  55.110  1.00  0.00     0.040 C 
BRANCH   6   7
ATOM      7  CG  LYS     1      54.249  37.978  54.577  1.00  0.00     0.004 C 
BRANCH   7   8
ATOM      8  CD  LYS     1      54.296  36.582  55.213  1.00  0.00     0.032 C 
BRANCH   8   9
ATOM      9  CE  LYS     1      54.016  36.620  56.719  1.00  0.00     0.206 C 
BRANCH   9  10
ATOM     10  NZ  LYS     1      55.095  35.977  57.488  1.00  0.00    -0.064 N 
ATOM     11  HZ3 LYS     1      54.974  34.984  57.473  1.00 99.99     0.275 HD
ATOM     12  HZ1 LYS     1      55.980  36.205  57.081  1.00 99.99     0.275 HD
ATOM     13  HZ2 LYS     1      55.075  36.297  58.435  1.00 99.99     0.275 HD
ENDBRANCH   9  10
ENDBRANCH   8   9
ENDBRANCH   7   8
ENDBRANCH   6   7
ENDBRANCH   5   6
BRANCH   5  14
ATOM     14  C   LYS     1      57.441  39.259  53.716  1.00  0.00     0.259 C 
ATOM     15  O   LYS     1      58.327  38.858  52.959  1.00  0.00    -0.271 OA
ATOM     16  N   TRP     2      57.152  40.562  53.793  1.00  0.00    -0.337 N 
ATOM     17  H   TRP     2      56.723  40.969  54.597  1.00 99.99     0.164 HD
BRANCH  16  18
ATOM     18  CA  TRP     2      57.477  41.527  52.717  1.00  0.00     0.164 C 
BRANCH  18  19
ATOM     19  C   TRP     2      58.838  42.242  52.887  1.00  0.00     0.251 C 
ATOM     20  N   ARG     3      59.853  41.722  52.195  1.00  0.00    -0.338 N 
ATOM     21  H   ARG     3      59.762  40.844  51.735  1.00 99.99     0.164 HD
ATOM     22  O   TRP     2      58.875  43.356  53.409  1.00  0.00    -0.271 OA
BRANCH  20  23
ATOM     23  CA  ARG     3      61.229  42.268  52.155  1.00  0.00     0.159 C 
BRANCH  23  24
ATOM     24  CB  ARG     3      62.150  41.036  52.245  1.00  0.00     0.034 C 
BRANCH  24  25
ATOM     25  CG  ARG     3      61.456  39.673  52.352  1.00  0.00     0.027 C 
BRANCH  25  26
ATOM     26  CD  ARG     3      61.967  38.680  51.304  1.00  0.00     0.116 C 
BRANCH  26  27
ATOM     27  NE  ARG     3      61.364  39.011  50.002  1.00  0.00    -0.212 N 
ATOM     28  HE  ARG     3      60.375  38.908  49.957  1.00 99.99     0.178 HD
ATOM     29  CZ  ARG     3      62.005  39.487  48.930  1.00  0.00     0.666 C 
ATOM     30  NH1 ARG     3      63.295  39.789  48.942  1.00  0.00    -0.235 N 
ATOM     31  NH2 ARG     3      61.363  39.641  47.784  1.00  0.00    -0.235 N 
ATOM     32 1HH1 ARG     3      63.751  40.135  48.124  1.00 99.99     0.174 HD
ATOM     33 2HH1 ARG     3      63.815  39.709  49.795  1.00 99.99     0.174 HD
ATOM     34 2HH2 ARG     3      60.394  39.420  47.712  1.00 99.99     0.174 HD
ATOM     35 1HH2 ARG     3      61.864  39.994  46.995  1.00 99.99     0.174 HD
ENDBRANCH  26  27
ENDBRANCH  25  26
ENDBRANCH  24  25
ENDBRANCH  23  24
BRANCH  23  36
ATOM     36  C   ARG     3      61.550  43.228  50.973  1.00  0.00     0.251 C 
ATOM     37  N   TRP     4      61.241  42.787  49.757  1.00  0.00    -0.337 N 
ATOM     38  H   TRP     4      61.096  41.814  49.581  1.00 99.99     0.164 HD
ATOM     39  O   ARG     3      62.072  44.326  51.147  1.00  0.00    -0.271 OA
BRANCH  37  40
ATOM     40  CA  TRP     4      61.239  43.617  48.532  1.00  0.00     0.164 C 
BRANCH  40  41
ATOM     41  CB  TRP     4      62.370  43.119  47.620  1.00  0.00     0.059 C 
BRANCH  41  42
ATOM     42  CG  TRP     4      63.693  43.856  47.846  1.00  0.00    -0.016 A 
ATOM     43  CD2 TRP     4      64.890  43.566  47.215  1.00  0.00    -0.001 A 
ATOM     44  CE2 TRP     4      65.730  44.647  47.427  1.00  0.00     0.042 A 
ATOM     45  CE3 TRP     4      65.261  42.529  46.374  1.00  0.00     0.014 A 
ATOM     46  CZ2 TRP     4      66.958  44.695  46.775  1.00  0.00     0.030 A 
ATOM     47  NE1 TRP     4      65.057  45.523  48.173  1.00  0.00    -0.365 N 
ATOM     48  CH2 TRP     4      67.328  43.667  45.912  1.00  0.00     0.002 A 
ATOM     49  CZ3 TRP     4      66.482  42.582  45.715  1.00  0.00     0.001 A 
ATOM     50  HE1 TRP     4      65.383  46.425  48.452  1.00 99.99     0.165 HD
ATOM     51  CD1 TRP     4      63.838  45.042  48.430  1.00  0.00     0.097 A 
ENDBRANCH  41  42
ENDBRANCH  40  41
BRANCH  40  52
ATOM     52  C   TRP     4      59.865  43.579  47.821  1.00  0.00     0.251 C 
ATOM     53  O   TRP     4      58.925  44.260  48.221  1.00  0.00    -0.271 OA
ATOM     54  N   ILE     5      59.793  42.801  46.740  1.00  0.00    -0.338 N 
ATOM     55  H   ILE     5      60.602  42.313  46.414  1.00 99.99     0.164 HD
BRANCH  54  56
ATOM     56  CA  ILE     5      58.575  42.548  45.931  1.00  0.00     0.159 C 
BRANCH  56  57
ATOM     57  CB  ILE     5      58.962  41.681  44.712  1.00  0.00     0.029 C 
ATOM     58  CG2 ILE     5      57.871  41.720  43.628  1.00  0.00     0.002 C 
BRANCH  57  59
ATOM     59  CG1 ILE     5      60.307  42.150  44.123  1.00  0.00     0.002 C 
ATOM     60  CD  ILE     5      60.183  43.243  43.054  1.00  0.00     0.000 C 
ENDBRANCH  57  59
ENDBRANCH  56  57
BRANCH  56  61
ATOM     61  C   ILE     5      57.485  41.889  46.812  1.00  0.00     0.251 C 
ATOM     62  O   ILE     5      56.404  42.441  47.007  1.00  0.00    -0.271 OA
ATOM     63  N   TRP     6      57.739  40.629  47.161  1.00  0.00    -0.336 N 
ATOM     64  H   TRP     6      58.416  40.087  46.663  1.00 99.99     0.164 HD
BRANCH  63  65
ATOM     65  CA  TRP     6      57.075  39.894  48.258  1.00  0.00     0.173 C 
BRANCH  65  66
ATOM     66  C   TRP     6      58.144  39.665  49.343  1.00  0.00     0.207 C 
ATOM     67  O   TRP     6      58.860  40.628  49.695  1.00 99.99    -0.646 OA
ATOM     68  OXT TRP     6      58.278  38.476  49.723  1.00 99.99    -0.646 OA
ENDBRANCH  65  66
BRANCH  65  69
ATOM     69  CB  TRP     6      56.648  38.528  47.702  1.00  0.00     0.060 C 
BRANCH  69  70
ATOM     70  CG  TRP     6      56.091  38.577  46.277  1.00  0.00    -0.016 A 
ATOM     71  CD2 TRP     6      56.771  38.400  45.078  1.00  0.00    -0.001 A 
ATOM     72  CE3 TRP     6      58.063  37.998  44.768  1.00  0.00     0.014 A 
ATOM     73  CE2 TRP     6      55.830  38.546  44.070  1.00  0.00     0.042 A 
ATOM     74  CZ3 TRP     6      58.406  37.704  43.455  1.00  0.00     0.001 A 
ATOM     75  CH2 TRP     6      57.464  37.850  42.444  1.00  0.00     0.002 A 
ATOM     76  CZ2 TRP     6      56.177  38.279  42.751  1.00  0.00     0.030 A 
ATOM     77  NE1 TRP     6      54.664  38.819  44.649  1.00  0.00    -0.365 N 
ATOM     78  HE1 TRP     6      53.796  38.959  44.171  1.00 99.99     0.165 HD
ATOM     79  CD1 TRP     6      54.824  38.839  45.971  1.00  0.00     0.097 A 
ENDBRANCH  69  70
ENDBRANCH  65  69
ENDBRANCH  63  65
ENDBRANCH  56  61
ENDBRANCH  54  56
ENDBRANCH  40  52
ENDBRANCH  37  40
ENDBRANCH  23  36
ENDBRANCH  20  23
ENDBRANCH  18  19
BRANCH  18  80
ATOM     80  CB  TRP     2      56.299  42.500  52.577  1.00  0.00     0.059 C 
BRANCH  80  81
ATOM     81  CG  TRP     2      55.565  42.356  51.244  1.00  0.00    -0.016 A 
ATOM     82  CD2 TRP     2      54.860  41.242  50.819  1.00  0.00    -0.001 A 
ATOM     83  CE3 TRP     2      54.671  39.976  51.357  1.00  0.00     0.014 A 
ATOM     84  CE2 TRP     2      54.261  41.597  49.621  1.00  0.00     0.042 A 
ATOM     85  CZ3 TRP     2      53.873  39.058  50.687  1.00  0.00     0.001 A 
ATOM     86  CH2 TRP     2      53.264  39.412  49.488  1.00  0.00     0.002 A 
ATOM     87  CZ2 TRP     2      53.460  40.680  48.953  1.00  0.00     0.030 A 
ATOM     88  NE1 TRP     2      54.600  42.856  49.358  1.00  0.00    -0.365 N 
ATOM     89  HE1 TRP     2      54.299  43.385  48.564  1.00 99.99     0.165 HD
ATOM     90  CD1 TRP     2      55.390  43.310  50.333  1.00  0.00     0.097 A 
ENDBRANCH  80  81
ENDBRANCH  18  80
ENDBRANCH  16  18
ENDBRANCH   5  14
ENDBRANCH   1   5
TORSDOF 29
ENDMDL
MODEL 5
REMARK VINA RESULT:      -5.9      2.661      5.469
REMARK  29 active torsions:
REMARK  status: ('A' for Active; 'I' for Inactive)
REMARK    1  A    between atoms: N_1  and  CA_2 
REMARK    2  A    between atoms: CA_2  and  CB_5 
REMARK    3  A    between atoms: CA_2  and  C_3 
REMARK       I    between atoms: C_3  and  N_16 
REMARK    4  A    between atoms: CB_5  and  CG_6 
REMARK    5  A    between atoms: CG_6  and  CD_7 
REMARK    6  A    between atoms: CD_7  and  CE_8 
REMARK    7  A    between atoms: CE_8  and  NZ_9 
REMARK    8  A    between atoms: N_16  and  CA_17 
REMARK    9  A    between atoms: CA_17  and  C_18 
REMARK   10  A    between atoms: CA_17  and  CB_20 
REMARK       I    between atoms: C_18  and  N_32 
REMARK   11  A    between atoms: CB_20  and  CG_21 
REMARK   12  A    between atoms: N_32  and  CA_33 
REMARK   13  A    between atoms: CA_33  and  CB_36 
REMARK   14  A    between atoms: CA_33  and  C_34 
REMARK       I    between atoms: C_34  and  N_49 
REMARK   15  A    between atoms: CB_36  and  CG_37 
REMARK   16  A    between atoms: CG_37  and  CD_38 
REMARK   17  A    between atoms: CD_38  and  NE_39 
REMARK       I    between atoms: NE_39  and  CZ_40 
REMARK       I    between atoms: CZ_40  and  NH1_41 
REMARK   18  A    between atoms: N_49  and  CA_50 
REMARK   19  A    between atoms: CA_50  and  CB_53 
REMARK   20  A    between atoms: CA_50  and  C_51 
REMARK       I    between atoms: C_51  and  N_65 
REMARK   21  A    between atoms: CB_53  and  CG_54 
REMARK   22  A    between atoms: N_65  and  CA_66 
REMARK   23  A    between atoms: CA_66  and  CB_69 
REMARK   24  A    between atoms: CA_66  and  C_67 
REMARK       I    between atoms: C_67  and  N_74 
REMARK   25  A    between atoms: CB_69  and  CG1_70 
REMARK   26  A    between atoms: N_74  and  CA_75 
REMARK   27  A    between atoms: CA_75  and  C_76 
REMARK   28  A    between atoms: CA_75  and  CB_78 
REMARK   29  A    between atoms: CB_78  and  CG_79 
ROOT
ATOM      1  N   LYS     1      61.316  42.931  46.590  1.00  0.00    -0.058 N 
ATOM      2  H1  LYS     1      61.518  41.953  46.615  1.00 99.99     0.276 HD
ATOM      3  H2  LYS     1      62.109  43.407  46.223  1.00 99.99     0.276 HD
ATOM      4  H3  LYS     1      61.228  43.287  47.517  1.00 99.99     0.276 HD
ENDROOT
BRANCH   1   5
ATOM      5  CA  LYS     1      60.100  43.194  45.769  1.00  0.00     0.255 C 
BRANCH   5   6
ATOM      6  CB  LYS     1      59.983  42.165  44.629  1.00  0.00     0.040 C 
BRANCH   6   7
ATOM      7  CG  LYS     1      59.179  42.612  43.403  1.00  0.00     0.004 C 
BRANCH   7   8
ATOM      8  CD  LYS     1      60.129  43.192  42.346  1.00  0.00     0.032 C 
BRANCH   8   9
ATOM      9  CE  LYS     1      59.586  43.024  40.922  1.00  0.00     0.206 C 
BRANCH   9  10
ATOM     10  NZ  LYS     1      59.094  44.300  40.375  1.00  0.00    -0.064 N 
ATOM     11  HZ3 LYS     1      59.683  44.593  39.622  1.00 99.99     0.275 HD
ATOM     12  HZ1 LYS     1      58.160  44.181  40.034  1.00 99.99     0.275 HD
ATOM     13  HZ2 LYS     1      59.097  45.000  41.089  1.00 99.99     0.275 HD
ENDBRANCH   9  10
ENDBRANCH   8   9
ENDBRANCH   7   8
ENDBRANCH   6   7
ENDBRANCH   5   6
BRANCH   5  14
ATOM     14  C   LYS     1      58.739  43.226  46.524  1.00  0.00     0.259 C 
ATOM     15  O   LYS     1      58.109  44.280  46.641  1.00  0.00    -0.271 OA
ATOM     16  N   TRP     2      58.392  42.146  47.230  1.00  0.00    -0.337 N 
ATOM     17  H   TRP     2      59.037  41.414  47.441  1.00 99.99     0.164 HD
BRANCH  16  18
ATOM     18  CA  TRP     2      57.037  41.952  47.799  1.00  0.00     0.164 C 
BRANCH  18  19
ATOM     19  C   TRP     2      56.889  42.411  49.269  1.00  0.00     0.251 C 
ATOM     20  N   ARG     3      57.488  41.639  50.177  1.00  0.00    -0.338 N 
ATOM     21  H   ARG     3      57.862  40.750  49.926  1.00 99.99     0.164 HD
ATOM     22  O   TRP     2      56.480  43.546  49.510  1.00  0.00    -0.271 OA
BRANCH  20  23
ATOM     23  CA  ARG     3      57.532  41.907  51.632  1.00  0.00     0.159 C 
BRANCH  23  24
ATOM     24  CB  ARG     3      57.042  40.604  52.293  1.00  0.00     0.034 C 
BRANCH  24  25
ATOM     25  CG  ARG     3      56.279  39.627  51.391  1.00  0.00     0.027 C 
BRANCH  25  26
ATOM     26  CD  ARG     3      54.776  39.627  51.679  1.00  0.00     0.116 C 
BRANCH  26  27
ATOM     27  NE  ARG     3      54.045  39.624  50.400  1.00  0.00    -0.212 N 
ATOM     28  HE  ARG     3      53.799  38.722  50.058  1.00 99.99     0.178 HD
ATOM     29  CZ  ARG     3      53.640  40.698  49.715  1.00  0.00     0.666 C 
ATOM     30  NH1 ARG     3      53.799  41.935  50.163  1.00  0.00    -0.235 N 
ATOM     31  NH2 ARG     3      53.087  40.557  48.522  1.00  0.00    -0.235 N 
ATOM     32 1HH1 ARG     3      53.494  42.719  49.627  1.00 99.99     0.174 HD
ATOM     33 2HH1 ARG     3      54.193  42.086  51.072  1.00 99.99     0.174 HD
ATOM     34 2HH2 ARG     3      52.952  39.651  48.129  1.00 99.99     0.174 HD
ATOM     35 1HH2 ARG     3      52.796  41.374  48.028  1.00 99.99     0.174 HD
ENDBRANCH  26  27
ENDBRANCH  25  26
ENDBRANCH  24  25
ENDBRANCH  23  24
BRANCH  23  36
ATOM     36  C   ARG     3      58.882  42.445  52.188  1.00  0.00     0.251 C 
ATOM     37  N   TRP     4      59.981  42.044  51.555  1.00  0.00    -0.337 N 
ATOM     38  H   TRP     4      59.972  41.237  50.965  1.00 99.99     0.164 HD
ATOM     39  O   ARG     3      58.937  43.185  53.167  1.00  0.00    -0.271 OA
BRANCH  37  40
ATOM     40  CA  TRP     4      61.331  42.612  51.761  1.00  0.00     0.164 C 
BRANCH  40  41
ATOM     41  CB  TRP     4      62.240  41.493  52.291  1.00  0.00     0.059 C 
BRANCH  41  42
ATOM     42  CG  TRP     4      62.130  41.296  53.805  1.00  0.00    -0.016 A 
ATOM     43  CD2 TRP     4      61.285  40.402  54.438  1.00  0.00    -0.001 A 
ATOM     44  CE2 TRP     4      61.725  40.288  55.747  1.00  0.00     0.042 A 
ATOM     45  CE3 TRP     4      60.273  39.589  53.954  1.00  0.00     0.014 A 
ATOM     46  CZ2 TRP     4      61.149  39.334  56.581  1.00  0.00     0.030 A 
ATOM     47  NE1 TRP     4      62.773  41.102  55.878  1.00  0.00    -0.365 N 
ATOM     48  CH2 TRP     4      60.146  38.500  56.094  1.00  0.00     0.002 A 
ATOM     49  CZ3 TRP     4      59.704  38.631  54.782  1.00  0.00     0.001 A 
ATOM     50  HE1 TRP     4      63.335  41.203  56.698  1.00 99.99     0.165 HD
ATOM     51  CD1 TRP     4      63.008  41.712  54.714  1.00  0.00     0.097 A 
ENDBRANCH  41  42
ENDBRANCH  40  41
BRANCH  40  52
ATOM     52  C   TRP     4      61.888  43.242  50.463  1.00  0.00     0.251 C 
ATOM     53  O   TRP     4      61.136  43.657  49.585  1.00  0.00    -0.271 OA
ATOM     54  N   ILE     5      63.216  43.339  50.388  1.00  0.00    -0.338 N 
ATOM     55  H   ILE     5      63.787  43.046  51.154  1.00 99.99     0.164 HD
BRANCH  54  56
ATOM     56  CA  ILE     5      63.988  43.843  49.225  1.00  0.00     0.159 C 
BRANCH  56  57
ATOM     57  CB  ILE     5      64.993  44.906  49.720  1.00  0.00     0.029 C 
ATOM     58  CG2 ILE     5      65.916  45.377  48.583  1.00  0.00     0.002 C 
BRANCH  57  59
ATOM     59  CG1 ILE     5      64.248  46.111  50.326  1.00  0.00     0.002 C 
ATOM     60  CD  ILE     5      63.363  46.874  49.332  1.00  0.00     0.000 C 
ENDBRANCH  57  59
ENDBRANCH  56  57
BRANCH  56  61
ATOM     61  C   ILE     5      64.675  42.660  48.497  1.00  0.00     0.251 C 
ATOM     62  O   ILE     5      64.565  42.510  47.282  1.00  0.00    -0.271 OA
ATOM     63  N   TRP     6      65.528  41.966  49.249  1.00  0.00    -0.336 N 
ATOM     64  H   TRP     6      65.894  42.352  50.096  1.00 99.99     0.164 HD
BRANCH  63  65
ATOM     65  CA  TRP     6      66.038  40.615  48.939  1.00  0.00     0.173 C 
BRANCH  65  66
ATOM     66  C   TRP     6      67.178  40.799  47.919  1.00  0.00     0.207 C 
ATOM     67  O   TRP     6      67.141  40.146  46.852  1.00 99.99    -0.646 OA
ATOM     68  OXT TRP     6      68.124  41.532  48.296  1.00 99.99    -0.646 OA
ENDBRANCH  65  66
BRANCH  65  69
ATOM     69  CB  TRP     6      64.901  39.840  48.259  1.00  0.00     0.060 C 
BRANCH  69  70
ATOM     70  CG  TRP     6      63.961  39.123  49.233  1.00  0.00    -0.016 A 
ATOM     71  CD2 TRP     6      62.586  39.270  49.369  1.00  0.00    -0.001 A 
ATOM     72  CE3 TRP     6      61.624  39.949  48.634  1.00  0.00     0.014 A 
ATOM     73  CE2 TRP     6      62.200  38.412  50.388  1.00  0.00     0.042 A 
ATOM     74  CZ3 TRP     6      60.275  39.742  48.890  1.00  0.00     0.001 A 
ATOM     75  CH2 TRP     6      59.888  38.882  49.910  1.00  0.00     0.002 A 
ATOM     76  CZ2 TRP     6      60.852  38.223  50.665  1.00  0.00     0.030 A 
ATOM     77  NE1 TRP     6      63.298  37.811  50.841  1.00  0.00    -0.365 N 
ATOM     78  HE1 TRP     6      63.328  37.124  51.566  1.00 99.99     0.165 HD
ATOM     79  CD1 TRP     6      64.352  38.241  50.147  1.00  0.00     0.097 A 
ENDBRANCH  69  70
ENDBRANCH  65  69
ENDBRANCH  63  65
ENDBRANCH  56  61
ENDBRANCH  54  56
ENDBRANCH  40  52
ENDBRANCH  37  40
ENDBRANCH  23  36
ENDBRANCH  20  23
ENDBRANCH  18  19
BRANCH  18  80
ATOM     80  CB  TRP     2      56.633  40.488  47.581  1.00  0.00     0.059 C 
BRANCH  80  81
ATOM     81  CG  TRP     2      56.474  40.131  46.104  1.00  0.00    -0.016 A 
ATOM     82  CD2 TRP     2      57.398  39.454  45.325  1.00  0.00    -0.001 A 
ATOM     83  CE3 TRP     2      58.687  38.996  45.565  1.00  0.00     0.014 A 
ATOM     84  CE2 TRP     2      56.790  39.240  44.099  1.00  0.00     0.042 A 
ATOM     85  CZ3 TRP     2      59.371  38.317  44.565  1.00  0.00     0.001 A 
ATOM     86  CH2 TRP     2      58.761  38.095  43.334  1.00  0.00     0.002 A 
ATOM     87  CZ2 TRP     2      57.472  38.558  43.100  1.00  0.00     0.030 A 
ATOM     88  NE1 TRP     2      55.570  39.767  44.157  1.00  0.00    -0.365 N 
ATOM     89  HE1 TRP     2      54.893  39.748  43.421  1.00 99.99     0.165 HD
ATOM     90  CD1 TRP     2      55.382  40.308  45.362  1.00  0.00     0.097 A 
ENDBRANCH  80  81
ENDBRANCH  18  80
ENDBRANCH  16  18
ENDBRANCH   5  14
ENDBRANCH   1   5
TORSDOF 29
ENDMDL
MODEL 6
REMARK VINA RESULT:      -5.9      2.266      6.815
REMARK  29 active torsions:
REMARK  status: ('A' for Active; 'I' for Inactive)
REMARK    1  A    between atoms: N_1  and  CA_2 
REMARK    2  A    between atoms: CA_2  and  CB_5 
REMARK    3  A    between atoms: CA_2  and  C_3 
REMARK       I    between atoms: C_3  and  N_16 
REMARK    4  A    between atoms: CB_5  and  CG_6 
REMARK    5  A    between atoms: CG_6  and  CD_7 
REMARK    6  A    between atoms: CD_7  and  CE_8 
REMARK    7  A    between atoms: CE_8  and  NZ_9 
REMARK    8  A    between atoms: N_16  and  CA_17 
REMARK    9  A    between atoms: CA_17  and  C_18 
REMARK   10  A    between atoms: CA_17  and  CB_20 
REMARK       I    between atoms: C_18  and  N_32 
REMARK   11  A    between atoms: CB_20  and  CG_21 
REMARK   12  A    between atoms: N_32  and  CA_33 
REMARK   13  A    between atoms: CA_33  and  CB_36 
REMARK   14  A    between atoms: CA_33  and  C_34 
REMARK       I    between atoms: C_34  and  N_49 
REMARK   15  A    between atoms: CB_36  and  CG_37 
REMARK   16  A    between atoms: CG_37  and  CD_38 
REMARK   17  A    between atoms: CD_38  and  NE_39 
REMARK       I    between atoms: NE_39  and  CZ_40 
REMARK       I    between atoms: CZ_40  and  NH1_41 
REMARK   18  A    between atoms: N_49  and  CA_50 
REMARK   19  A    between atoms: CA_50  and  CB_53 
REMARK   20  A    between atoms: CA_50  and  C_51 
REMARK       I    between atoms: C_51  and  N_65 
REMARK   21  A    between atoms: CB_53  and  CG_54 
REMARK   22  A    between atoms: N_65  and  CA_66 
REMARK   23  A    between atoms: CA_66  and  CB_69 
REMARK   24  A    between atoms: CA_66  and  C_67 
REMARK       I    between atoms: C_67  and  N_74 
REMARK   25  A    between atoms: CB_69  and  CG1_70 
REMARK   26  A    between atoms: N_74  and  CA_75 
REMARK   27  A    between atoms: CA_75  and  C_76 
REMARK   28  A    between atoms: CA_75  and  CB_78 
REMARK   29  A    between atoms: CB_78  and  CG_79 
ROOT
ATOM      1  N   LYS     1      55.035  43.381  49.484  1.00  0.00    -0.058 N 
ATOM      2  H1  LYS     1      54.471  43.481  50.304  1.00 99.99     0.276 HD
ATOM      3  H2  LYS     1      55.781  44.037  49.536  1.00 99.99     0.276 HD
ATOM      4  H3  LYS     1      54.520  43.662  48.679  1.00 99.99     0.276 HD
ENDROOT
BRANCH   1   5
ATOM      5  CA  LYS     1      55.546  41.987  49.366  1.00  0.00     0.255 C 
BRANCH   5   6
ATOM      6  CB  LYS     1      54.449  41.050  48.826  1.00  0.00     0.040 C 
BRANCH   6   7
ATOM      7  CG  LYS     1      53.836  40.079  49.840  1.00  0.00     0.004 C 
BRANCH   7   8
ATOM      8  CD  LYS     1      52.438  39.654  49.370  1.00  0.00     0.032 C 
BRANCH   8   9
ATOM      9  CE  LYS     1      51.325  40.282  50.215  1.00  0.00     0.206 C 
BRANCH   9  10
ATOM     10  NZ  LYS     1      51.440  39.904  51.633  1.00  0.00    -0.064 N 
ATOM     11  HZ3 LYS     1      51.259  38.925  51.737  1.00 99.99     0.275 HD
ATOM     12  HZ1 LYS     1      52.366  40.101  51.960  1.00 99.99     0.275 HD
ATOM     13  HZ2 LYS     1      50.781  40.421  52.178  1.00 99.99     0.275 HD
ENDBRANCH   9  10
ENDBRANCH   8   9
ENDBRANCH   7   8
ENDBRANCH   6   7
ENDBRANCH   5   6
BRANCH   5  14
ATOM     14  C   LYS     1      56.820  41.779  48.496  1.00  0.00     0.259 C 
ATOM     15  O   LYS     1      56.861  40.892  47.641  1.00  0.00    -0.271 OA
ATOM     16  N   TRP     2      57.932  42.427  48.856  1.00  0.00    -0.337 N 
ATOM     17  H   TRP     2      58.028  42.876  49.742  1.00 99.99     0.164 HD
BRANCH  16  18
ATOM     18  CA  TRP     2      59.137  42.503  47.997  1.00  0.00     0.164 C 
BRANCH  18  19
ATOM     19  C   TRP     2      60.476  42.345  48.756  1.00  0.00     0.251 C 
ATOM     20  N   ARG     3      60.900  43.428  49.409  1.00  0.00    -0.338 N 
ATOM     21  H   ARG     3      60.459  44.312  49.276  1.00 99.99     0.164 HD
ATOM     22  O   TRP     2      60.936  41.219  48.944  1.00  0.00    -0.271 OA
BRANCH  20  23
ATOM     23  CA  ARG     3      62.117  43.499  50.249  1.00  0.00     0.159 C 
BRANCH  23  24
ATOM     24  CB  ARG     3      62.499  44.991  50.273  1.00  0.00     0.034 C 
BRANCH  24  25
ATOM     25  CG  ARG     3      63.668  45.411  49.374  1.00  0.00     0.027 C 
BRANCH  25  26
ATOM     26  CD  ARG     3      64.764  44.343  49.313  1.00  0.00     0.116 C 
BRANCH  26  27
ATOM     27  NE  ARG     3      64.892  43.871  47.924  1.00  0.00    -0.212 N 
ATOM     28  HE  ARG     3      64.268  43.139  47.668  1.00 99.99     0.178 HD
ATOM     29  CZ  ARG     3      65.704  44.374  46.988  1.00  0.00     0.666 C 
ATOM     30  NH1 ARG     3      66.466  45.437  47.197  1.00  0.00    -0.235 N 
ATOM     31  NH2 ARG     3      65.802  43.787  45.807  1.00  0.00    -0.235 N 
ATOM     32 1HH1 ARG     3      67.070  45.786  46.483  1.00 99.99     0.174 HD
ATOM     33 2HH1 ARG     3      66.407  45.926  48.069  1.00 99.99     0.174 HD
ATOM     34 2HH2 ARG     3      65.261  42.977  45.597  1.00 99.99     0.174 HD
ATOM     35 1HH2 ARG     3      66.418  44.178  45.125  1.00 99.99     0.174 HD
ENDBRANCH  26  27
ENDBRANCH  25  26
ENDBRANCH  24  25
ENDBRANCH  23  24
BRANCH  23  36
ATOM     36  C   ARG     3      62.020  42.835  51.653  1.00  0.00     0.251 C 
ATOM     37  N   TRP     4      61.487  41.617  51.691  1.00  0.00    -0.337 N 
ATOM     38  H   TRP     4      60.924  41.275  50.940  1.00 99.99     0.164 HD
ATOM     39  O   ARG     3      62.399  43.405  52.673  1.00  0.00    -0.271 OA
BRANCH  37  40
ATOM     40  CA  TRP     4      61.515  40.718  52.866  1.00  0.00     0.164 C 
BRANCH  40  41
ATOM     41  CB  TRP     4      60.432  41.187  53.848  1.00  0.00     0.059 C 
BRANCH  41  42
ATOM     42  CG  TRP     4      59.081  41.442  53.176  1.00  0.00    -0.016 A 
ATOM     43  CD2 TRP     4      57.964  40.634  53.291  1.00  0.00    -0.001 A 
ATOM     44  CE2 TRP     4      56.883  41.370  52.831  1.00  0.00     0.042 A 
ATOM     45  CE3 TRP     4      57.781  39.391  53.875  1.00  0.00     0.014 A 
ATOM     46  CZ2 TRP     4      55.598  40.857  52.971  1.00  0.00     0.030 A 
ATOM     47  NE1 TRP     4      57.357  42.554  52.442  1.00  0.00    -0.365 N 
ATOM     48  CH2 TRP     4      55.406  39.618  53.577  1.00  0.00     0.002 A 
ATOM     49  CZ3 TRP     4      56.498  38.882  54.025  1.00  0.00     0.001 A 
ATOM     50  HE1 TRP     4      56.810  43.320  52.106  1.00 99.99     0.165 HD
ATOM     51  CD1 TRP     4      58.677  42.591  52.642  1.00  0.00     0.097 A 
ENDBRANCH  41  42
ENDBRANCH  40  41
BRANCH  40  52
ATOM     52  C   TRP     4      61.321  39.239  52.455  1.00  0.00     0.251 C 
ATOM     53  O   TRP     4      61.459  38.331  53.270  1.00  0.00    -0.271 OA
ATOM     54  N   ILE     5      60.958  39.031  51.189  1.00  0.00    -0.338 N 
ATOM     55  H   ILE     5      60.796  39.805  50.577  1.00 99.99     0.164 HD
BRANCH  54  56
ATOM     56  CA  ILE     5      60.776  37.708  50.542  1.00  0.00     0.159 C 
BRANCH  56  57
ATOM     57  CB  ILE     5      59.264  37.399  50.464  1.00  0.00     0.029 C 
ATOM     58  CG2 ILE     5      58.780  36.650  51.717  1.00  0.00     0.002 C 
BRANCH  57  59
ATOM     59  CG1 ILE     5      58.457  38.699  50.282  1.00  0.00     0.002 C 
ATOM     60  CD  ILE     5      56.935  38.506  50.291  1.00  0.00     0.000 C 
ENDBRANCH  57  59
ENDBRANCH  56  57
BRANCH  56  61
ATOM     61  C   ILE     5      61.462  37.702  49.153  1.00  0.00     0.251 C 
ATOM     62  O   ILE     5      60.953  37.127  48.194  1.00  0.00    -0.271 OA
ATOM     63  N   TRP     6      62.511  38.516  49.049  1.00  0.00    -0.336 N 
ATOM     64  H   TRP     6      62.651  39.257  49.706  1.00 99.99     0.164 HD
BRANCH  63  65
ATOM     65  CA  TRP     6      63.543  38.451  47.993  1.00  0.00     0.173 C 
BRANCH  65  66
ATOM     66  C   TRP     6      64.906  38.569  48.703  1.00  0.00     0.207 C 
ATOM     67  O   TRP     6      64.932  38.592  49.953  1.00 99.99    -0.646 OA
ATOM     68  OXT TRP     6      65.893  38.735  47.946  1.00 99.99    -0.646 OA
ENDBRANCH  65  66
BRANCH  65  69
ATOM     69  CB  TRP     6      63.357  39.681  47.094  1.00  0.00     0.060 C 
BRANCH  69  70
ATOM     70  CG  TRP     6      62.798  39.363  45.704  1.00  0.00    -0.016 A 
ATOM     71  CD2 TRP     6      61.471  39.329  45.296  1.00  0.00    -0.001 A 
ATOM     72  CE3 TRP     6      60.278  39.687  45.909  1.00  0.00     0.014 A 
ATOM     73  CE2 TRP     6      61.483  38.986  43.952  1.00  0.00     0.042 A 
ATOM     74  CZ3 TRP     6      59.103  39.741  45.170  1.00  0.00     0.001 A 
ATOM     75  CH2 TRP     6      59.115  39.398  43.824  1.00  0.00     0.002 A 
ATOM     76  CZ2 TRP     6      60.305  39.012  43.217  1.00  0.00     0.030 A 
ATOM     77  NE1 TRP     6      62.754  38.805  43.599  1.00  0.00    -0.365 N 
ATOM     78  HE1 TRP     6      63.074  38.566  42.682  1.00 99.99     0.165 HD
ATOM     79  CD1 TRP     6      63.539  39.030  44.652  1.00  0.00     0.097 A 
ENDBRANCH  69  70
ENDBRANCH  65  69
ENDBRANCH  63  65
ENDBRANCH  56  61
ENDBRANCH  54  56
ENDBRANCH  40  52
ENDBRANCH  37  40
ENDBRANCH  23  36
ENDBRANCH  20  23
ENDBRANCH  18  19
BRANCH  18  80
ATOM     80  CB  TRP     2      59.059  43.799  47.179  1.00  0.00     0.059 C 
BRANCH  80  81
ATOM     81  CG  TRP     2      59.220  43.562  45.678  1.00  0.00    -0.016 A 
ATOM     82  CD2 TRP     2      60.399  43.242  45.025  1.00  0.00    -0.001 A 
ATOM     83  CE3 TRP     2      61.716  43.125  45.448  1.00  0.00     0.014 A 
ATOM     84  CE2 TRP     2      60.057  42.997  43.705  1.00  0.00     0.042 A 
ATOM     85  CZ3 TRP     2      62.700  42.760  44.538  1.00  0.00     0.001 A 
ATOM     86  CH2 TRP     2      62.360  42.507  43.213  1.00  0.00     0.002 A 
ATOM     87  CZ2 TRP     2      61.040  42.628  42.796  1.00  0.00     0.030 A 
ATOM     88  NE1 TRP     2      58.743  43.168  43.591  1.00  0.00    -0.365 N 
ATOM     89  HE1 TRP     2      58.211  43.042  42.752  1.00 99.99     0.165 HD
ATOM     90  CD1 TRP     2      58.240  43.513  44.777  1.00  0.00     0.097 A 
ENDBRANCH  80  81
ENDBRANCH  18  80
ENDBRANCH  16  18
ENDBRANCH   5  14
ENDBRANCH   1   5
TORSDOF 29
ENDMDL
MODEL 7
REMARK VINA RESULT:      -5.8      2.486      5.936
REMARK  29 active torsions:
REMARK  status: ('A' for Active; 'I' for Inactive)
REMARK    1  A    between atoms: N_1  and  CA_2 
REMARK    2  A    between atoms: CA_2  and  CB_5 
REMARK    3  A    between atoms: CA_2  and  C_3 
REMARK       I    between atoms: C_3  and  N_16 
REMARK    4  A    between atoms: CB_5  and  CG_6 
REMARK    5  A    between atoms: CG_6  and  CD_7 
REMARK    6  A    between atoms: CD_7  and  CE_8 
REMARK    7  A    between atoms: CE_8  and  NZ_9 
REMARK    8  A    between atoms: N_16  and  CA_17 
REMARK    9  A    between atoms: CA_17  and  C_18 
REMARK   10  A    between atoms: CA_17  and  CB_20 
REMARK       I    between atoms: C_18  and  N_32 
REMARK   11  A    between atoms: CB_20  and  CG_21 
REMARK   12  A    between atoms: N_32  and  CA_33 
REMARK   13  A    between atoms: CA_33  and  CB_36 
REMARK   14  A    between atoms: CA_33  and  C_34 
REMARK       I    between atoms: C_34  and  N_49 
REMARK   15  A    between atoms: CB_36  and  CG_37 
REMARK   16  A    between atoms: CG_37  and  CD_38 
REMARK   17  A    between atoms: CD_38  and  NE_39 
REMARK       I    between atoms: NE_39  and  CZ_40 
REMARK       I    between atoms: CZ_40  and  NH1_41 
REMARK   18  A    between atoms: N_49  and  CA_50 
REMARK   19  A    between atoms: CA_50  and  CB_53 
REMARK   20  A    between atoms: CA_50  and  C_51 
REMARK       I    between atoms: C_51  and  N_65 
REMARK   21  A    between atoms: CB_53  and  CG_54 
REMARK   22  A    between atoms: N_65  and  CA_66 
REMARK   23  A    between atoms: CA_66  and  CB_69 
REMARK   24  A    between atoms: CA_66  and  C_67 
REMARK       I    between atoms: C_67  and  N_74 
REMARK   25  A    between atoms: CB_69  and  CG1_70 
REMARK   26  A    between atoms: N_74  and  CA_75 
REMARK   27  A    between atoms: CA_75  and  C_76 
REMARK   28  A    between atoms: CA_75  and  CB_78 
REMARK   29  A    between atoms: CB_78  and  CG_79 
ROOT
ATOM      1  N   LYS     1      60.735  43.069  45.900  1.00  0.00    -0.058 N 
ATOM      2  H1  LYS     1      61.125  43.968  45.705  1.00 99.99     0.276 HD
ATOM      3  H2  LYS     1      60.745  42.929  46.884  1.00 99.99     0.276 HD
ATOM      4  H3  LYS     1      61.333  42.353  45.548  1.00 99.99     0.276 HD
ENDROOT
BRANCH   1   5
ATOM      5  CA  LYS     1      59.354  42.966  45.351  1.00  0.00     0.255 C 
BRANCH   5   6
ATOM      6  CB  LYS     1      59.167  41.636  44.597  1.00  0.00     0.040 C 
BRANCH   6   7
ATOM      7  CG  LYS     1      58.818  41.751  43.110  1.00  0.00     0.004 C 
BRANCH   7   8
ATOM      8  CD  LYS     1      59.486  40.609  42.332  1.00  0.00     0.032 C 
BRANCH   8   9
ATOM      9  CE  LYS     1      58.777  40.316  41.006  1.00  0.00     0.206 C 
BRANCH   9  10
ATOM     10  NZ  LYS     1      57.343  40.648  41.072  1.00  0.00    -0.064 N 
ATOM     11  HZ3 LYS     1      56.942  40.589  40.157  1.00 99.99     0.275 HD
ATOM     12  HZ1 LYS     1      56.876  40.003  41.677  1.00 99.99     0.275 HD
ATOM     13  HZ2 LYS     1      57.225  41.576  41.425  1.00 99.99     0.275 HD
ENDBRANCH   9  10
ENDBRANCH   8   9
ENDBRANCH   7   8
ENDBRANCH   6   7
ENDBRANCH   5   6
BRANCH   5  14
ATOM     14  C   LYS     1      58.184  43.106  46.369  1.00  0.00     0.259 C 
ATOM     15  O   LYS     1      57.704  44.212  46.628  1.00  0.00    -0.271 OA
ATOM     16  N   TRP     2      57.875  42.040  47.114  1.00  0.00    -0.337 N 
ATOM     17  H   TRP     2      58.469  41.240  47.177  1.00 99.99     0.164 HD
BRANCH  16  18
ATOM     18  CA  TRP     2      56.651  41.962  47.944  1.00  0.00     0.164 C 
BRANCH  18  19
ATOM     19  C   TRP     2      56.852  42.372  49.422  1.00  0.00     0.251 C 
ATOM     20  N   ARG     3      57.872  41.784  50.050  1.00  0.00    -0.338 N 
ATOM     21  H   ARG     3      58.358  41.020  49.633  1.00 99.99     0.164 HD
ATOM     22  O   TRP     2      56.271  43.364  49.860  1.00  0.00    -0.271 OA
BRANCH  20  23
ATOM     23  CA  ARG     3      58.293  42.059  51.442  1.00  0.00     0.159 C 
BRANCH  23  24
ATOM     24  CB  ARG     3      57.491  41.067  52.306  1.00  0.00     0.034 C 
BRANCH  24  25
ATOM     25  CG  ARG     3      56.068  41.492  52.688  1.00  0.00     0.027 C 
BRANCH  25  26
ATOM     26  CD  ARG     3      55.009  40.538  52.129  1.00  0.00     0.116 C 
BRANCH  26  27
ATOM     27  NE  ARG     3      54.266  41.225  51.060  1.00  0.00    -0.212 N 
ATOM     28  HE  ARG     3      54.496  42.185  50.937  1.00 99.99     0.178 HD
ATOM     29  CZ  ARG     3      53.385  40.668  50.223  1.00  0.00     0.666 C 
ATOM     30  NH1 ARG     3      53.121  39.370  50.220  1.00  0.00    -0.235 N 
ATOM     31  NH2 ARG     3      52.704  41.421  49.375  1.00  0.00    -0.235 N 
ATOM     32 1HH1 ARG     3      52.453  38.981  49.589  1.00 99.99     0.174 HD
ATOM     33 2HH1 ARG     3      53.631  38.759  50.830  1.00 99.99     0.174 HD
ATOM     34 2HH2 ARG     3      52.852  42.406  49.340  1.00 99.99     0.174 HD
ATOM     35 1HH2 ARG     3      52.048  40.983  48.763  1.00 99.99     0.174 HD
ENDBRANCH  26  27
ENDBRANCH  25  26
ENDBRANCH  24  25
ENDBRANCH  23  24
BRANCH  23  36
ATOM     36  C   ARG     3      59.826  42.053  51.708  1.00  0.00     0.251 C 
ATOM     37  N   TRP     4      60.534  41.142  51.046  1.00  0.00    -0.337 N 
ATOM     38  H   TRP     4      60.096  40.339  50.644  1.00 99.99     0.164 HD
ATOM     39  O   ARG     3      60.356  42.833  52.495  1.00  0.00    -0.271 OA
BRANCH  37  40
ATOM     40  CA  TRP     4      62.011  41.113  50.965  1.00  0.00     0.164 C 
BRANCH  40  41
ATOM     41  CB  TRP     4      62.445  39.657  50.743  1.00  0.00     0.059 C 
BRANCH  41  42
ATOM     42  CG  TRP     4      63.951  39.446  50.916  1.00  0.00    -0.016 A 
ATOM     43  CD2 TRP     4      64.866  39.325  49.885  1.00  0.00    -0.001 A 
ATOM     44  CE2 TRP     4      66.125  39.491  50.441  1.00  0.00     0.042 A 
ATOM     45  CE3 TRP     4      64.702  39.223  48.513  1.00  0.00     0.014 A 
ATOM     46  CZ2 TRP     4      67.235  39.568  49.606  1.00  0.00     0.030 A 
ATOM     47  NE1 TRP     4      65.950  39.678  51.749  1.00  0.00    -0.365 N 
ATOM     48  CH2 TRP     4      67.074  39.488  48.226  1.00  0.00     0.002 A 
ATOM     49  CZ3 TRP     4      65.808  39.311  47.679  1.00  0.00     0.001 A 
ATOM     50  HE1 TRP     4      66.672  39.873  52.413  1.00 99.99     0.165 HD
ATOM     51  CD1 TRP     4      64.645  39.642  52.032  1.00  0.00     0.097 A 
ENDBRANCH  41  42
ENDBRANCH  40  41
BRANCH  40  52
ATOM     52  C   TRP     4      62.538  42.049  49.852  1.00  0.00     0.251 C 
ATOM     53  O   TRP     4      62.181  41.913  48.685  1.00  0.00    -0.271 OA
ATOM     54  N   ILE     5      63.358  43.022  50.253  1.00  0.00    -0.338 N 
ATOM     55  H   ILE     5      63.573  43.134  51.222  1.00 99.99     0.164 HD
BRANCH  54  56
ATOM     56  CA  ILE     5      64.044  44.000  49.371  1.00  0.00     0.159 C 
BRANCH  56  57
ATOM     57  CB  ILE     5      64.511  45.197  50.229  1.00  0.00     0.029 C 
ATOM     58  CG2 ILE     5      65.500  46.087  49.457  1.00  0.00     0.002 C 
BRANCH  57  59
ATOM     59  CG1 ILE     5      63.303  46.032  50.694  1.00  0.00     0.002 C 
ATOM     60  CD  ILE     5      62.302  46.371  49.581  1.00  0.00     0.000 C 
ENDBRANCH  57  59
ENDBRANCH  56  57
BRANCH  56  61
ATOM     61  C   ILE     5      65.209  43.307  48.622  1.00  0.00     0.251 C 
ATOM     62  O   ILE     5      66.139  42.786  49.234  1.00  0.00    -0.271 OA
ATOM     63  N   TRP     6      65.016  43.156  47.313  1.00  0.00    -0.336 N 
ATOM     64  H   TRP     6      64.098  43.222  46.920  1.00 99.99     0.164 HD
BRANCH  63  65
ATOM     65  CA  TRP     6      66.070  42.866  46.320  1.00  0.00     0.173 C 
BRANCH  65  66
ATOM     66  C   TRP     6      66.967  44.117  46.253  1.00  0.00     0.207 C 
ATOM     67  O   TRP     6      68.204  43.976  46.374  1.00 99.99    -0.646 OA
ATOM     68  OXT TRP     6      66.359  45.212  46.179  1.00 99.99    -0.646 OA
ENDBRANCH  65  66
BRANCH  65  69
ATOM     69  CB  TRP     6      65.383  42.690  44.959  1.00  0.00     0.060 C 
BRANCH  69  70
ATOM     70  CG  TRP     6      65.237  41.232  44.513  1.00  0.00    -0.016 A 
ATOM     71  CD2 TRP     6      64.209  40.342  44.798  1.00  0.00    -0.001 A 
ATOM     72  CE3 TRP     6      62.972  40.483  45.412  1.00  0.00     0.014 A 
ATOM     73  CE2 TRP     6      64.541  39.149  44.175  1.00  0.00     0.042 A 
ATOM     74  CZ3 TRP     6      62.051  39.445  45.370  1.00  0.00     0.001 A 
ATOM     75  CH2 TRP     6      62.382  38.249  44.745  1.00  0.00     0.002 A 
ATOM     76  CZ2 TRP     6      63.632  38.098  44.155  1.00  0.00     0.030 A 
ATOM     77  NE1 TRP     6      65.716  39.325  43.576  1.00  0.00    -0.365 N 
ATOM     78  HE1 TRP     6      66.200  38.640  43.031  1.00 99.99     0.165 HD
ATOM     79  CD1 TRP     6      66.131  40.575  43.782  1.00  0.00     0.097 A 
ENDBRANCH  69  70
ENDBRANCH  65  69
ENDBRANCH  63  65
ENDBRANCH  56  61
ENDBRANCH  54  56
ENDBRANCH  40  52
ENDBRANCH  37  40
ENDBRANCH  23  36
ENDBRANCH  20  23
ENDBRANCH  18  19
BRANCH  18  80
ATOM     80  CB  TRP     2      56.056  40.556  47.786  1.00  0.00     0.059 C 
BRANCH  80  81
ATOM     81  CG  TRP     2      56.033  40.083  46.333  1.00  0.00    -0.016 A 
ATOM     82  CD2 TRP     2      56.912  39.182  45.755  1.00  0.00    -0.001 A 
ATOM     83  CE3 TRP     2      58.049  38.534  46.220  1.00  0.00     0.014 A 
ATOM     84  CE2 TRP     2      56.444  38.952  44.471  1.00  0.00     0.042 A 
ATOM     85  CZ3 TRP     2      58.723  37.650  45.389  1.00  0.00     0.001 A 
ATOM     86  CH2 TRP     2      58.254  37.412  44.101  1.00  0.00     0.002 A 
ATOM     87  CZ2 TRP     2      57.116  38.065  43.641  1.00  0.00     0.030 A 
ATOM     88  NE1 TRP     2      55.346  39.685  44.305  1.00  0.00    -0.365 N 
ATOM     89  HE1 TRP     2      54.783  39.709  43.479  1.00 99.99     0.165 HD
ATOM     90  CD1 TRP     2      55.102  40.370  45.424  1.00  0.00     0.097 A 
ENDBRANCH  80  81
ENDBRANCH  18  80
ENDBRANCH  16  18
ENDBRANCH   5  14
ENDBRANCH   1   5
TORSDOF 29
ENDMDL
MODEL 8
REMARK VINA RESULT:      -5.8      2.673      6.815
REMARK  29 active torsions:
REMARK  status: ('A' for Active; 'I' for Inactive)
REMARK    1  A    between atoms: N_1  and  CA_2 
REMARK    2  A    between atoms: CA_2  and  CB_5 
REMARK    3  A    between atoms: CA_2  and  C_3 
REMARK       I    between atoms: C_3  and  N_16 
REMARK    4  A    between atoms: CB_5  and  CG_6 
REMARK    5  A    between atoms: CG_6  and  CD_7 
REMARK    6  A    between atoms: CD_7  and  CE_8 
REMARK    7  A    between atoms: CE_8  and  NZ_9 
REMARK    8  A    between atoms: N_16  and  CA_17 
REMARK    9  A    between atoms: CA_17  and  C_18 
REMARK   10  A    between atoms: CA_17  and  CB_20 
REMARK       I    between atoms: C_18  and  N_32 
REMARK   11  A    between atoms: CB_20  and  CG_21 
REMARK   12  A    between atoms: N_32  and  CA_33 
REMARK   13  A    between atoms: CA_33  and  CB_36 
REMARK   14  A    between atoms: CA_33  and  C_34 
REMARK       I    between atoms: C_34  and  N_49 
REMARK   15  A    between atoms: CB_36  and  CG_37 
REMARK   16  A    between atoms: CG_37  and  CD_38 
REMARK   17  A    between atoms: CD_38  and  NE_39 
REMARK       I    between atoms: NE_39  and  CZ_40 
REMARK       I    between atoms: CZ_40  and  NH1_41 
REMARK   18  A    between atoms: N_49  and  CA_50 
REMARK   19  A    between atoms: CA_50  and  CB_53 
REMARK   20  A    between atoms: CA_50  and  C_51 
REMARK       I    between atoms: C_51  and  N_65 
REMARK   21  A    between atoms: CB_53  and  CG_54 
REMARK   22  A    between atoms: N_65  and  CA_66 
REMARK   23  A    between atoms: CA_66  and  CB_69 
REMARK   24  A    between atoms: CA_66  and  C_67 
REMARK       I    between atoms: C_67  and  N_74 
REMARK   25  A    between atoms: CB_69  and  CG1_70 
REMARK   26  A    between atoms: N_74  and  CA_75 
REMARK   27  A    between atoms: CA_75  and  C_76 
REMARK   28  A    between atoms: CA_75  and  CB_78 
REMARK   29  A    between atoms: CB_78  and  CG_79 
ROOT
ATOM      1  N   LYS     1      59.856  43.526  46.821  1.00  0.00    -0.058 N 
ATOM      2  H1  LYS     1      59.834  42.668  47.332  1.00 99.99     0.276 HD
ATOM      3  H2  LYS     1      60.438  43.402  46.024  1.00 99.99     0.276 HD
ATOM      4  H3  LYS     1      60.323  44.229  47.353  1.00 99.99     0.276 HD
ENDROOT
BRANCH   1   5
ATOM      5  CA  LYS     1      58.480  43.940  46.429  1.00  0.00     0.255 C 
BRANCH   5   6
ATOM      6  CB  LYS     1      58.002  43.140  45.202  1.00  0.00     0.040 C 
BRANCH   6   7
ATOM      7  CG  LYS     1      58.610  41.744  45.033  1.00  0.00     0.004 C 
BRANCH   7   8
ATOM      8  CD  LYS     1      57.505  40.684  45.131  1.00  0.00     0.032 C 
BRANCH   8   9
ATOM      9  CE  LYS     1      57.260  39.974  43.796  1.00  0.00     0.206 C 
BRANCH   9  10
ATOM     10  NZ  LYS     1      55.905  39.400  43.727  1.00  0.00    -0.064 N 
ATOM     11  HZ3 LYS     1      55.921  38.565  43.175  1.00 99.99     0.275 HD
ATOM     12  HZ1 LYS     1      55.587  39.176  44.649  1.00 99.99     0.275 HD
ATOM     13  HZ2 LYS     1      55.277  40.058  43.312  1.00 99.99     0.275 HD
ENDBRANCH   9  10
ENDBRANCH   8   9
ENDBRANCH   7   8
ENDBRANCH   6   7
ENDBRANCH   5   6
BRANCH   5  14
ATOM     14  C   LYS     1      57.379  43.838  47.524  1.00  0.00     0.259 C 
ATOM     15  O   LYS     1      56.795  44.847  47.925  1.00  0.00    -0.271 OA
ATOM     16  N   TRP     2      57.249  42.676  48.171  1.00  0.00    -0.337 N 
ATOM     17  H   TRP     2      57.934  41.952  48.115  1.00 99.99     0.164 HD
BRANCH  16  18
ATOM     18  CA  TRP     2      56.106  42.369  49.061  1.00  0.00     0.164 C 
BRANCH  18  19
ATOM     19  C   TRP     2      56.437  42.423  50.571  1.00  0.00     0.251 C 
ATOM     20  N   ARG     3      57.299  41.502  51.006  1.00  0.00    -0.338 N 
ATOM     21  H   ARG     3      57.574  40.743  50.423  1.00 99.99     0.164 HD
ATOM     22  O   TRP     2      56.125  43.418  51.224  1.00  0.00    -0.271 OA
BRANCH  20  23
ATOM     23  CA  ARG     3      57.808  41.394  52.392  1.00  0.00     0.159 C 
BRANCH  23  24
ATOM     24  CB  ARG     3      57.924  39.881  52.658  1.00  0.00     0.034 C 
BRANCH  24  25
ATOM     25  CG  ARG     3      57.155  39.341  53.870  1.00  0.00     0.027 C 
BRANCH  25  26
ATOM     26  CD  ARG     3      56.737  40.455  54.833  1.00  0.00     0.116 C 
BRANCH  26  27
ATOM     27  NE  ARG     3      57.729  40.544  55.918  1.00  0.00    -0.212 N 
ATOM     28  HE  ARG     3      58.670  40.673  55.618  1.00 99.99     0.178 HD
ATOM     29  CZ  ARG     3      57.473  40.533  57.230  1.00  0.00     0.666 C 
ATOM     30  NH1 ARG     3      56.242  40.506  57.719  1.00  0.00    -0.235 N 
ATOM     31  NH2 ARG     3      58.466  40.511  58.102  1.00  0.00    -0.235 N 
ATOM     32 1HH1 ARG     3      56.079  40.491  58.703  1.00 99.99     0.174 HD
ATOM     33 2HH1 ARG     3      55.460  40.546  57.094  1.00 99.99     0.174 HD
ATOM     34 2HH2 ARG     3      59.414  40.518  57.792  1.00 99.99     0.174 HD
ATOM     35 1HH2 ARG     3      58.251  40.499  59.077  1.00 99.99     0.174 HD
ENDBRANCH  26  27
ENDBRANCH  25  26
ENDBRANCH  24  25
ENDBRANCH  23  24
BRANCH  23  36
ATOM     36  C   ARG     3      59.096  42.206  52.713  1.00  0.00     0.251 C 
ATOM     37  N   TRP     4      60.225  41.753  52.177  1.00  0.00    -0.337 N 
ATOM     38  H   TRP     4      60.301  40.813  51.846  1.00 99.99     0.164 HD
ATOM     39  O   ARG     3      59.078  43.201  53.433  1.00  0.00    -0.271 OA
BRANCH  37  40
ATOM     40  CA  TRP     4      61.507  42.492  52.154  1.00  0.00     0.164 C 
BRANCH  40  41
ATOM     41  CB  TRP     4      62.595  41.572  52.728  1.00  0.00     0.059 C 
BRANCH  41  42
ATOM     42  CG  TRP     4      62.523  41.433  54.250  1.00  0.00    -0.016 A 
ATOM     43  CD2 TRP     4      61.854  40.431  54.932  1.00  0.00    -0.001 A 
ATOM     44  CE2 TRP     4      62.307  40.462  56.242  1.00  0.00     0.042 A 
ATOM     45  CE3 TRP     4      61.006  39.426  54.496  1.00  0.00     0.014 A 
ATOM     46  CZ2 TRP     4      61.913  39.462  57.124  1.00  0.00     0.030 A 
ATOM     47  NE1 TRP     4      63.189  41.458  56.324  1.00  0.00    -0.365 N 
ATOM     48  CH2 TRP     4      61.078  38.437  56.686  1.00  0.00     0.002 A 
ATOM     49  CZ3 TRP     4      60.620  38.422  55.373  1.00  0.00     0.001 A 
ATOM     50  HE1 TRP     4      63.724  41.699  57.133  1.00 99.99     0.165 HD
ATOM     51  CD1 TRP     4      63.310  42.044  55.130  1.00  0.00     0.097 A 
ENDBRANCH  41  42
ENDBRANCH  40  41
BRANCH  40  52
ATOM     52  C   TRP     4      61.856  42.982  50.729  1.00  0.00     0.251 C 
ATOM     53  O   TRP     4      60.999  43.050  49.853  1.00  0.00    -0.271 OA
ATOM     54  N   ILE     5      63.122  43.358  50.539  1.00  0.00    -0.338 N 
ATOM     55  H   ILE     5      63.772  43.345  51.298  1.00 99.99     0.164 HD
BRANCH  54  56
ATOM     56  CA  ILE     5      63.714  43.799  49.251  1.00  0.00     0.159 C 
BRANCH  56  57
ATOM     57  CB  ILE     5      64.945  44.684  49.550  1.00  0.00     0.029 C 
ATOM     58  CG2 ILE     5      65.732  45.000  48.267  1.00  0.00     0.002 C 
BRANCH  57  59
ATOM     59  CG1 ILE     5      64.513  45.992  50.239  1.00  0.00     0.002 C 
ATOM     60  CD  ILE     5      63.502  46.825  49.440  1.00  0.00     0.000 C 
ENDBRANCH  57  59
ENDBRANCH  56  57
BRANCH  56  61
ATOM     61  C   ILE     5      64.060  42.565  48.381  1.00  0.00     0.251 C 
ATOM     62  O   ILE     5      65.050  41.877  48.616  1.00  0.00    -0.271 OA
ATOM     63  N   TRP     6      63.111  42.214  47.514  1.00  0.00    -0.336 N 
ATOM     64  H   TRP     6      62.171  42.538  47.625  1.00 99.99     0.164 HD
BRANCH  63  65
ATOM     65  CA  TRP     6      63.303  41.331  46.345  1.00  0.00     0.173 C 
BRANCH  65  66
ATOM     66  C   TRP     6      63.250  42.233  45.098  1.00  0.00     0.207 C 
ATOM     67  O   TRP     6      64.113  42.076  44.206  1.00 99.99    -0.646 OA
ATOM     68  OXT TRP     6      62.382  43.138  45.126  1.00 99.99    -0.646 OA
ENDBRANCH  65  66
BRANCH  65  69
ATOM     69  CB  TRP     6      62.110  40.367  46.298  1.00  0.00     0.060 C 
BRANCH  69  70
ATOM     70  CG  TRP     6      61.535  40.010  47.672  1.00  0.00    -0.016 A 
ATOM     71  CD2 TRP     6      62.124  39.264  48.685  1.00  0.00    -0.001 A 
ATOM     72  CE3 TRP     6      63.398  38.743  48.865  1.00  0.00     0.014 A 
ATOM     73  CE2 TRP     6      61.204  39.218  49.722  1.00  0.00     0.042 A 
ATOM     74  CZ3 TRP     6      63.766  38.211  50.094  1.00  0.00     0.001 A 
ATOM     75  CH2 TRP     6      62.845  38.165  51.133  1.00  0.00     0.002 A 
ATOM     76  CZ2 TRP     6      61.560  38.661  50.944  1.00  0.00     0.030 A 
ATOM     77  NE1 TRP     6      60.122  39.883  49.324  1.00  0.00    -0.365 N 
ATOM     78  HE1 TRP     6      59.298  40.033  49.871  1.00 99.99     0.165 HD
ATOM     79  CD1 TRP     6      60.323  40.355  48.095  1.00  0.00     0.097 A 
ENDBRANCH  69  70
ENDBRANCH  65  69
ENDBRANCH  63  65
ENDBRANCH  56  61
ENDBRANCH  54  56
ENDBRANCH  40  52
ENDBRANCH  37  40
ENDBRANCH  23  36
ENDBRANCH  20  23
ENDBRANCH  18  19
BRANCH  18  80
ATOM     80  CB  TRP     2      55.508  41.025  48.624  1.00  0.00     0.059 C 
BRANCH  80  81
ATOM     81  CG  TRP     2      54.317  40.599  49.482  1.00  0.00    -0.016 A 
ATOM     82  CD2 TRP     2      54.274  39.506  50.331  1.00  0.00    -0.001 A 
ATOM     83  CE3 TRP     2      55.167  38.478  50.601  1.00  0.00     0.014 A 
ATOM     84  CE2 TRP     2      53.059  39.577  50.994  1.00  0.00     0.042 A 
ATOM     85  CZ3 TRP     2      54.839  37.512  51.544  1.00  0.00     0.001 A 
ATOM     86  CH2 TRP     2      53.623  37.583  52.215  1.00  0.00     0.002 A 
ATOM     87  CZ2 TRP     2      52.732  38.614  51.939  1.00  0.00     0.030 A 
ATOM     88  NE1 TRP     2      52.422  40.658  50.552  1.00  0.00    -0.365 N 
ATOM     89  HE1 TRP     2      51.526  40.973  50.866  1.00 99.99     0.165 HD
ATOM     90  CD1 TRP     2      53.177  41.270  49.639  1.00  0.00     0.097 A 
ENDBRANCH  80  81
ENDBRANCH  18  80
ENDBRANCH  16  18
ENDBRANCH   5  14
ENDBRANCH   1   5
TORSDOF 29
ENDMDL
MODEL 9
REMARK VINA RESULT:      -5.8      1.798      2.921
REMARK  29 active torsions:
REMARK  status: ('A' for Active; 'I' for Inactive)
REMARK    1  A    between atoms: N_1  and  CA_2 
REMARK    2  A    between atoms: CA_2  and  CB_5 
REMARK    3  A    between atoms: CA_2  and  C_3 
REMARK       I    between atoms: C_3  and  N_16 
REMARK    4  A    between atoms: CB_5  and  CG_6 
REMARK    5  A    between atoms: CG_6  and  CD_7 
REMARK    6  A    between atoms: CD_7  and  CE_8 
REMARK    7  A    between atoms: CE_8  and  NZ_9 
REMARK    8  A    between atoms: N_16  and  CA_17 
REMARK    9  A    between atoms: CA_17  and  C_18 
REMARK   10  A    between atoms: CA_17  and  CB_20 
REMARK       I    between atoms: C_18  and  N_32 
REMARK   11  A    between atoms: CB_20  and  CG_21 
REMARK   12  A    between atoms: N_32  and  CA_33 
REMARK   13  A    between atoms: CA_33  and  CB_36 
REMARK   14  A    between atoms: CA_33  and  C_34 
REMARK       I    between atoms: C_34  and  N_49 
REMARK   15  A    between atoms: CB_36  and  CG_37 
REMARK   16  A    between atoms: CG_37  and  CD_38 
REMARK   17  A    between atoms: CD_38  and  NE_39 
REMARK       I    between atoms: NE_39  and  CZ_40 
REMARK       I    between atoms: CZ_40  and  NH1_41 
REMARK   18  A    between atoms: N_49  and  CA_50 
REMARK   19  A    between atoms: CA_50  and  CB_53 
REMARK   20  A    between atoms: CA_50  and  C_51 
REMARK       I    between atoms: C_51  and  N_65 
REMARK   21  A    between atoms: CB_53  and  CG_54 
REMARK   22  A    between atoms: N_65  and  CA_66 
REMARK   23  A    between atoms: CA_66  and  CB_69 
REMARK   24  A    between atoms: CA_66  and  C_67 
REMARK       I    between atoms: C_67  and  N_74 
REMARK   25  A    between atoms: CB_69  and  CG1_70 
REMARK   26  A    between atoms: N_74  and  CA_75 
REMARK   27  A    between atoms: CA_75  and  C_76 
REMARK   28  A    between atoms: CA_75  and  CB_78 
REMARK   29  A    between atoms: CB_78  and  CG_79 
ROOT
ATOM      1  N   LYS     1      56.914  40.630  43.521  1.00  0.00    -0.058 N 
ATOM      2  H1  LYS     1      55.978  40.963  43.630  1.00 99.99     0.276 HD
ATOM      3  H2  LYS     1      57.510  41.412  43.367  1.00 99.99     0.276 HD
ATOM      4  H3  LYS     1      56.993  40.097  42.682  1.00 99.99     0.276 HD
ENDROOT
BRANCH   1   5
ATOM      5  CA  LYS     1      57.337  39.855  44.721  1.00  0.00     0.255 C 
BRANCH   5   6
ATOM      6  CB  LYS     1      58.566  38.983  44.398  1.00  0.00     0.040 C 
BRANCH   6   7
ATOM      7  CG  LYS     1      59.930  39.665  44.544  1.00  0.00     0.004 C 
BRANCH   7   8
ATOM      8  CD  LYS     1      60.987  38.626  44.943  1.00  0.00     0.032 C 
BRANCH   8   9
ATOM      9  CE  LYS     1      61.418  38.767  46.406  1.00  0.00     0.206 C 
BRANCH   9  10
ATOM     10  NZ  LYS     1      60.852  39.978  47.025  1.00  0.00    -0.064 N 
ATOM     11  HZ3 LYS     1      60.931  39.916  48.020  1.00 99.99     0.275 HD
ATOM     12  HZ1 LYS     1      61.352  40.784  46.706  1.00 99.99     0.275 HD
ATOM     13  HZ2 LYS     1      59.888  40.068  46.775  1.00 99.99     0.275 HD
ENDBRANCH   9  10
ENDBRANCH   8   9
ENDBRANCH   7   8
ENDBRANCH   6   7
ENDBRANCH   5   6
BRANCH   5  14
ATOM     14  C   LYS     1      57.658  40.672  46.006  1.00  0.00     0.259 C 
ATOM     15  O   LYS     1      57.685  40.124  47.110  1.00  0.00    -0.271 OA
ATOM     16  N   TRP     2      57.673  42.005  45.910  1.00  0.00    -0.337 N 
ATOM     17  H   TRP     2      57.312  42.489  45.114  1.00 99.99     0.164 HD
BRANCH  16  18
ATOM     18  CA  TRP     2      58.185  42.888  46.984  1.00  0.00     0.164 C 
BRANCH  18  19
ATOM     19  C   TRP     2      57.093  43.449  47.925  1.00  0.00     0.251 C 
ATOM     20  N   ARG     3      56.680  42.623  48.887  1.00  0.00    -0.338 N 
ATOM     21  H   ARG     3      56.947  41.663  48.887  1.00 99.99     0.164 HD
ATOM     22  O   TRP     2      56.854  44.656  47.922  1.00  0.00    -0.271 OA
BRANCH  20  23
ATOM     23  CA  ARG     3      55.691  42.958  49.937  1.00  0.00     0.159 C 
BRANCH  23  24
ATOM     24  CB  ARG     3      54.434  42.143  49.575  1.00  0.00     0.034 C 
BRANCH  24  25
ATOM     25  CG  ARG     3      54.672  40.759  48.958  1.00  0.00     0.027 C 
BRANCH  25  26
ATOM     26  CD  ARG     3      53.925  39.654  49.709  1.00  0.00     0.116 C 
BRANCH  26  27
ATOM     27  NE  ARG     3      53.697  40.092  51.097  1.00  0.00    -0.212 N 
ATOM     28  HE  ARG     3      53.045  40.836  51.202  1.00 99.99     0.178 HD
ATOM     29  CZ  ARG     3      54.225  39.545  52.197  1.00  0.00     0.666 C 
ATOM     30  NH1 ARG     3      54.990  38.464  52.164  1.00  0.00    -0.235 N 
ATOM     31  NH2 ARG     3      54.024  40.103  53.379  1.00  0.00    -0.235 N 
ATOM     32 1HH1 ARG     3      55.377  38.082  53.000  1.00 99.99     0.174 HD
ATOM     33 2HH1 ARG     3      55.149  37.997  51.292  1.00 99.99     0.174 HD
ATOM     34 2HH2 ARG     3      53.465  40.924  53.464  1.00 99.99     0.174 HD
ATOM     35 1HH2 ARG     3      54.431  39.679  54.186  1.00 99.99     0.174 HD
ENDBRANCH  26  27
ENDBRANCH  25  26
ENDBRANCH  24  25
ENDBRANCH  23  24
BRANCH  23  36
ATOM     36  C   ARG     3      56.169  42.788  51.408  1.00  0.00     0.251 C 
ATOM     37  N   TRP     4      57.225  42.002  51.595  1.00  0.00    -0.337 N 
ATOM     38  H   TRP     4      57.507  41.339  50.902  1.00 99.99     0.164 HD
ATOM     39  O   ARG     3      55.598  43.335  52.347  1.00  0.00    -0.271 OA
BRANCH  37  40
ATOM     40  CA  TRP     4      57.982  41.891  52.861  1.00  0.00     0.164 C 
BRANCH  40  41
ATOM     41  CB  TRP     4      57.772  40.475  53.417  1.00  0.00     0.059 C 
BRANCH  41  42
ATOM     42  CG  TRP     4      58.254  40.318  54.861  1.00  0.00    -0.016 A 
ATOM     43  CD2 TRP     4      57.438  40.290  55.979  1.00  0.00    -0.001 A 
ATOM     44  CE2 TRP     4      58.204  39.800  57.025  1.00  0.00     0.042 A 
ATOM     45  CE3 TRP     4      56.081  40.516  56.136  1.00  0.00     0.014 A 
ATOM     46  CZ2 TRP     4      57.596  39.521  58.245  1.00  0.00     0.030 A 
ATOM     47  NE1 TRP     4      59.425  39.574  56.540  1.00  0.00    -0.365 N 
ATOM     48  CH2 TRP     4      56.228  39.726  58.402  1.00  0.00     0.002 A 
ATOM     49  CZ3 TRP     4      55.471  40.228  57.350  1.00  0.00     0.001 A 
ATOM     50  HE1 TRP     4      60.189  39.173  57.045  1.00 99.99     0.165 HD
ATOM     51  CD1 TRP     4      59.454  39.894  55.244  1.00  0.00     0.097 A 
ENDBRANCH  41  42
ENDBRANCH  40  41
BRANCH  40  52
ATOM     52  C   TRP     4      59.482  42.214  52.657  1.00  0.00     0.251 C 
ATOM     53  O   TRP     4      59.979  43.237  53.121  1.00  0.00    -0.271 OA
ATOM     54  N   ILE     5      60.188  41.298  51.993  1.00  0.00    -0.338 N 
ATOM     55  H   ILE     5      59.755  40.451  51.688  1.00 99.99     0.164 HD
BRANCH  54  56
ATOM     56  CA  ILE     5      61.619  41.409  51.616  1.00  0.00     0.159 C 
BRANCH  56  57
ATOM     57  CB  ILE     5      62.076  40.064  51.007  1.00  0.00     0.029 C 
ATOM     58  CG2 ILE     5      63.600  40.030  50.805  1.00  0.00     0.002 C 
BRANCH  57  59
ATOM     59  CG1 ILE     5      61.636  38.890  51.902  1.00  0.00     0.002 C 
ATOM     60  CD  ILE     5      62.791  38.153  52.592  1.00  0.00     0.000 C 
ENDBRANCH  57  59
ENDBRANCH  56  57
BRANCH  56  61
ATOM     61  C   ILE     5      61.818  42.603  50.650  1.00  0.00     0.251 C 
ATOM     62  O   ILE     5      61.007  42.842  49.757  1.00  0.00    -0.271 OA
ATOM     63  N   TRP     6      62.802  43.434  50.989  1.00  0.00    -0.336 N 
ATOM     64  H   TRP     6      63.170  43.438  51.919  1.00 99.99     0.164 HD
BRANCH  63  65
ATOM     65  CA  TRP     6      63.434  44.425  50.093  1.00  0.00     0.173 C 
BRANCH  65  66
ATOM     66  C   TRP     6      62.780  45.784  50.409  1.00  0.00     0.207 C 
ATOM     67  O   TRP     6      62.299  45.969  51.549  1.00 99.99    -0.646 OA
ATOM     68  OXT TRP     6      62.696  46.577  49.441  1.00 99.99    -0.646 OA
ENDBRANCH  65  66
BRANCH  65  69
ATOM     69  CB  TRP     6      63.072  44.036  48.653  1.00  0.00     0.060 C 
BRANCH  69  70
ATOM     70  CG  TRP     6      64.281  43.739  47.761  1.00  0.00    -0.016 A 
ATOM     71  CD2 TRP     6      64.756  42.505  47.335  1.00  0.00    -0.001 A 
ATOM     72  CE3 TRP     6      64.262  41.212  47.431  1.00  0.00     0.014 A 
ATOM     73  CE2 TRP     6      65.874  42.764  46.556  1.00  0.00     0.042 A 
ATOM     74  CZ3 TRP     6      64.861  40.182  46.717  1.00  0.00     0.001 A 
ATOM     75  CH2 TRP     6      65.980  40.440  45.935  1.00  0.00     0.002 A 
ATOM     76  CZ2 TRP     6      66.492  41.731  45.862  1.00  0.00     0.030 A 
ATOM     77  NE1 TRP     6      66.056  44.082  46.546  1.00  0.00    -0.365 N 
ATOM     78  HE1 TRP     6      66.778  44.565  46.051  1.00 99.99     0.165 HD
ATOM     79  CD1 TRP     6      65.101  44.663  47.271  1.00  0.00     0.097 A 
ENDBRANCH  69  70
ENDBRANCH  65  69
ENDBRANCH  63  65
ENDBRANCH  56  61
ENDBRANCH  54  56
ENDBRANCH  40  52
ENDBRANCH  37  40
ENDBRANCH  23  36
ENDBRANCH  20  23
ENDBRANCH  18  19
BRANCH  18  80
ATOM     80  CB  TRP     2      59.041  43.983  46.334  1.00  0.00     0.059 C 
BRANCH  80  81
ATOM     81  CG  TRP     2      59.393  43.675  44.880  1.00  0.00    -0.016 A 
ATOM     82  CD2 TRP     2      60.603  43.182  44.421  1.00  0.00    -0.001 A 
ATOM     83  CE3 TRP     2      61.815  42.910  45.044  1.00  0.00     0.014 A 
ATOM     84  CE2 TRP     2      60.435  42.937  43.067  1.00  0.00     0.042 A 
ATOM     85  CZ3 TRP     2      62.866  42.388  44.302  1.00  0.00     0.001 A 
ATOM     86  CH2 TRP     2      62.699  42.136  42.944  1.00  0.00     0.002 A 
ATOM     87  CZ2 TRP     2      61.485  42.412  42.326  1.00  0.00     0.030 A 
ATOM     88  NE1 TRP     2      59.188  43.272  42.750  1.00  0.00    -0.365 N 
ATOM     89  HE1 TRP     2      58.777  43.187  41.842  1.00 99.99     0.165 HD
ATOM     90  CD1 TRP     2      58.563  43.722  43.839  1.00  0.00     0.097 A 
ENDBRANCH  80  81
ENDBRANCH  18  80
ENDBRANCH  16  18
ENDBRANCH   5  14
ENDBRANCH   1   5
TORSDOF 29
ENDMDL
