MODEL 1
REMARK VINA RESULT:      -4.6      0.000      0.000
REMARK WARNING: 32 MAX_TORS EXCEEDED!!!
REMARK  35 active torsions:
REMARK  status: ('A' for Active; 'I' for Inactive)
REMARK    1  A    between atoms: N_1  and  CA_2 
REMARK    2  A    between atoms: CA_2  and  CB_5 
REMARK    3  A    between atoms: CA_2  and  C_3 
REMARK       I    between atoms: C_3  and  N_16 
REMARK    4  A    between atoms: CB_5  and  CG_6 
REMARK    5  A    between atoms: CG_6  and  CD_7 
REMARK    6  A    between atoms: CD_7  and  CE_8 
REMARK    7  A    between atoms: CE_8  and  NZ_9 
REMARK    8  A    between atoms: N_16  and  CA_17 
REMARK    9  A    between atoms: CA_17  and  CB_20 
REMARK   10  A    between atoms: CA_17  and  C_18 
REMARK       I    between atoms: C_18  and  N_25 
REMARK   11  A    between atoms: CB_20  and  CG1_21 
REMARK   12  A    between atoms: N_25  and  CA_26 
REMARK   13  A    between atoms: CA_26  and  C_27 
REMARK   14  A    between atoms: CA_26  and  CB_29 
REMARK       I    between atoms: C_27  and  N_34 
REMARK   15  A    between atoms: CB_29  and  CG1_30 
REMARK   16  A    between atoms: N_34  and  CA_35 
REMARK   17  A    between atoms: CA_35  and  C_36 
REMARK   18  A    between atoms: CA_35  and  CB_38 
REMARK       I    between atoms: C_36  and  N_47 
REMARK   19  A    between atoms: CB_38  and  CG_39 
REMARK   20  A    between atoms: CG_39  and  CD_40 
REMARK   21  A    between atoms: CD_40  and  CE_41 
REMARK   22  A    between atoms: CE_41  and  NZ_42 
REMARK   23  A    between atoms: N_47  and  CA_48 
REMARK   24  A    between atoms: CA_48  and  CB_51 
REMARK   25  A    between atoms: CA_48  and  C_49 
REMARK       I    between atoms: C_49  and  N_55 
REMARK   26  A    between atoms: N_55  and  CA_56 
REMARK   27  A    between atoms: CA_56  and  C_57 
REMARK   28  A    between atoms: CA_56  and  CB_59 
REMARK       I    between atoms: C_57  and  N_63 
REMARK   29  A    between atoms: N_63  and  CA_64 
REMARK   30  A    between atoms: CA_64  and  CB_67 
REMARK   31  A    between atoms: CA_64  and  C_65 
REMARK   32  A    between atoms: CB_67  and  CG_68 
REMARK   33  A    between atoms: CG_68  and  CD_69 
REMARK   34  A    between atoms: CD_69  and  CE_70 
REMARK   35  A    between atoms: CE_70  and  NZ_71 
ROOT
ATOM      1  N   LYS     1      58.944  44.323  47.455  1.00  0.00    -0.058 N 
ATOM      2  H1  LYS     1      59.281  43.564  48.011  1.00 99.99     0.276 HD
ATOM      3  H2  LYS     1      59.613  44.549  46.771  1.00 99.99     0.276 HD
ATOM      4  H3  LYS     1      58.886  45.127  48.036  1.00 99.99     0.276 HD
ENDROOT
BRANCH   1   5
ATOM      5  CA  LYS     1      57.624  43.965  46.887  1.00  0.00     0.255 C 
BRANCH   5   6
ATOM      6  CB  LYS     1      57.666  42.709  45.984  1.00  0.00     0.040 C 
BRANCH   6   7
ATOM      7  CG  LYS     1      58.273  43.004  44.600  1.00  0.00     0.004 C 
BRANCH   7   8
ATOM      8  CD  LYS     1      58.875  41.771  43.907  1.00  0.00     0.032 C 
BRANCH   8   9
ATOM      9  CE  LYS     1      60.222  42.099  43.243  1.00  0.00     0.206 C 
BRANCH   9  10
ATOM     10  NZ  LYS     1      60.758  43.415  43.635  1.00  0.00    -0.064 N 
ATOM     11  HZ3 LYS     1      60.833  44.010  42.835  1.00 99.99     0.275 HD
ATOM     12  HZ2 LYS     1      61.659  43.306  44.056  1.00 99.99     0.275 HD
ATOM     13  HZ1 LYS     1      60.142  43.843  44.300  1.00 99.99     0.275 HD
ENDBRANCH   9  10
ENDBRANCH   8   9
ENDBRANCH   7   8
ENDBRANCH   6   7
ENDBRANCH   5   6
BRANCH   5  14
ATOM     14  C   LYS     1      56.597  43.890  48.040  1.00  0.00     0.259 C 
ATOM     15  N   ILE     2      56.577  42.774  48.785  1.00  0.00    -0.338 N 
ATOM     16  H   ILE     2      57.182  42.012  48.557  1.00 99.99     0.164 HD
ATOM     17  O   LYS     1      56.125  44.958  48.418  1.00  0.00    -0.271 OA
BRANCH  15  18
ATOM     18  CA  ILE     2      55.692  42.482  49.948  1.00  0.00     0.159 C 
BRANCH  18  19
ATOM     19  CB  ILE     2      54.867  41.191  49.724  1.00  0.00     0.029 C 
ATOM     20  CG2 ILE     2      53.352  41.476  49.787  1.00  0.00     0.002 C 
BRANCH  19  21
ATOM     21  CG1 ILE     2      55.222  40.577  48.356  1.00  0.00     0.002 C 
ATOM     22  CD  ILE     2      54.042  39.986  47.570  1.00  0.00     0.000 C 
ENDBRANCH  19  21
ENDBRANCH  18  19
BRANCH  18  23
ATOM     23  C   ILE     2      56.351  42.573  51.346  1.00  0.00     0.251 C 
ATOM     24  O   ILE     2      56.224  43.617  51.981  1.00  0.00    -0.271 OA
ATOM     25  N   ILE     3      57.054  41.519  51.786  1.00  0.00    -0.338 N 
ATOM     26  H   ILE     3      57.052  40.652  51.291  1.00 99.99     0.164 HD
BRANCH  25  27
ATOM     27  CA  ILE     3      57.818  41.483  53.061  1.00  0.00     0.159 C 
BRANCH  27  28
ATOM     28  C   ILE     3      59.308  41.856  52.868  1.00  0.00     0.251 C 
ATOM     29  N   LYS     4      60.062  40.969  52.212  1.00  0.00    -0.338 N 
ATOM     30  H   LYS     4      59.635  40.187  51.752  1.00 99.99     0.164 HD
ATOM     31  O   ILE     3      59.606  43.041  52.980  1.00  0.00    -0.271 OA
BRANCH  29  32
ATOM     32  CA  LYS     4      61.518  41.081  51.938  1.00  0.00     0.159 C 
BRANCH  32  33
ATOM     33  C   LYS     4      61.996  40.836  50.483  1.00  0.00     0.251 C 
ATOM     34  O   LYS     4      63.084  40.312  50.255  1.00  0.00    -0.271 OA
ATOM     35  N   VAL     5      61.099  41.059  49.529  1.00  0.00    -0.338 N 
ATOM     36  H   VAL     5      60.145  41.239  49.772  1.00 99.99     0.164 HD
BRANCH  35  37
ATOM     37  CA  VAL     5      61.338  40.946  48.071  1.00  0.00     0.159 C 
BRANCH  37  38
ATOM     38  CB  VAL     5      60.024  40.513  47.374  1.00  0.00     0.029 C 
ATOM     39  CG1 VAL     5      60.226  39.359  46.386  1.00  0.00     0.002 C 
ATOM     40  CG2 VAL     5      58.937  40.088  48.371  1.00  0.00     0.002 C 
ENDBRANCH  37  38
BRANCH  37  41
ATOM     41  C   VAL     5      61.894  42.274  47.493  1.00  0.00     0.251 C 
ATOM     42  O   VAL     5      61.354  42.824  46.537  1.00  0.00    -0.271 OA
ATOM     43  N   VAL     6      62.993  42.758  48.074  1.00  0.00    -0.338 N 
ATOM     44  H   VAL     6      63.438  42.254  48.816  1.00 99.99     0.164 HD
BRANCH  43  45
ATOM     45  CA  VAL     6      63.649  44.050  47.751  1.00  0.00     0.159 C 
BRANCH  45  46
ATOM     46  C   VAL     6      64.823  43.853  46.757  1.00  0.00     0.251 C 
ATOM     47  O   VAL     6      65.906  44.403  46.936  1.00  0.00    -0.271 OA
ATOM     48  N   LYS     7      64.606  42.969  45.785  1.00  0.00    -0.336 N 
ATOM     49  H   LYS     7      63.721  42.499  45.723  1.00 99.99     0.164 HD
BRANCH  48  50
ATOM     50  CA  LYS     7      65.543  42.583  44.705  1.00  0.00     0.168 C 
BRANCH  50  51
ATOM     51  CB  LYS     7      66.161  41.208  44.982  1.00  0.00     0.033 C 
BRANCH  51  52
ATOM     52  CG  LYS     7      67.367  41.187  45.921  1.00  0.00     0.004 C 
BRANCH  52  53
ATOM     53  CD  LYS     7      66.944  40.478  47.204  1.00  0.00     0.032 C 
BRANCH  53  54
ATOM     54  CE  LYS     7      67.055  41.384  48.427  1.00  0.00     0.206 C 
BRANCH  54  55
ATOM     55  NZ  LYS     7      65.823  41.266  49.219  1.00  0.00    -0.064 N 
ATOM     56  HZ1 LYS     7      66.054  41.207  50.189  1.00 99.99     0.275 HD
ATOM     57  HZ2 LYS     7      65.244  42.064  49.055  1.00 99.99     0.275 HD
ATOM     58  HZ3 LYS     7      65.336  40.439  48.939  1.00 99.99     0.275 HD
ENDBRANCH  54  55
ENDBRANCH  53  54
ENDBRANCH  52  53
ENDBRANCH  51  52
ENDBRANCH  50  51
BRANCH  50  59
ATOM     59  C   LYS     7      64.749  42.417  43.395  1.00  0.00     0.206 C 
ATOM     60  O   LYS     7      65.352  41.994  42.386  1.00 99.99    -0.646 OA
ATOM     61  OXT LYS     7      63.543  42.757  43.447  1.00 99.99    -0.646 OA
ENDBRANCH  50  59
ENDBRANCH  48  50
ENDBRANCH  45  46
BRANCH  45  62
ATOM     62  CB  VAL     6      64.128  44.707  49.070  1.00  0.00     0.029 C 
ATOM     63  CG1 VAL     6      63.990  46.234  49.064  1.00  0.00     0.002 C 
ATOM     64  CG2 VAL     6      63.377  44.174  50.299  1.00  0.00     0.002 C 
ENDBRANCH  45  62
ENDBRANCH  43  45
ENDBRANCH  37  41
ENDBRANCH  35  37
ENDBRANCH  32  33
BRANCH  32  65
ATOM     65  CB  LYS     4      62.272  40.098  52.844  1.00  0.00     0.032 C 
BRANCH  65  66
ATOM     66  CG  LYS     4      63.316  40.728  53.766  1.00  0.00     0.004 C 
BRANCH  66  67
ATOM     67  CD  LYS     4      62.588  41.356  54.958  1.00  0.00     0.032 C 
BRANCH  67  68
ATOM     68  CE  LYS     4      61.819  40.321  55.780  1.00  0.00     0.206 C 
BRANCH  68  69
ATOM     69  NZ  LYS     4      61.786  40.701  57.199  1.00  0.00    -0.064 N 
ATOM     70  HZ1 LYS     4      62.436  40.139  57.713  1.00 99.99     0.275 HD
ATOM     71  HZ2 LYS     4      62.027  41.667  57.300  1.00 99.99     0.275 HD
ATOM     72  HZ3 LYS     4      60.866  40.551  57.562  1.00 99.99     0.275 HD
ENDBRANCH  68  69
ENDBRANCH  67  68
ENDBRANCH  66  67
ENDBRANCH  65  66
ENDBRANCH  32  65
ENDBRANCH  29  32
ENDBRANCH  27  28
BRANCH  27  73
ATOM     73  CB  ILE     3      57.631  40.129  53.788  1.00  0.00     0.029 C 
ATOM     74  CG2 ILE     3      58.053  40.232  55.267  1.00  0.00     0.002 C 
BRANCH  73  75
ATOM     75  CG1 ILE     3      56.167  39.664  53.685  1.00  0.00     0.002 C 
ATOM     76  CD  ILE     3      55.181  40.406  54.601  1.00  0.00     0.000 C 
ENDBRANCH  73  75
ENDBRANCH  27  73
ENDBRANCH  25  27
ENDBRANCH  18  23
ENDBRANCH  15  18
ENDBRANCH   5  14
ENDBRANCH   1   5
TORSDOF 35
ENDMDL
MODEL 2
REMARK VINA RESULT:      -4.3      2.350      9.157
REMARK WARNING: 32 MAX_TORS EXCEEDED!!!
REMARK  35 active torsions:
REMARK  status: ('A' for Active; 'I' for Inactive)
REMARK    1  A    between atoms: N_1  and  CA_2 
REMARK    2  A    between atoms: CA_2  and  CB_5 
REMARK    3  A    between atoms: CA_2  and  C_3 
REMARK       I    between atoms: C_3  and  N_16 
REMARK    4  A    between atoms: CB_5  and  CG_6 
REMARK    5  A    between atoms: CG_6  and  CD_7 
REMARK    6  A    between atoms: CD_7  and  CE_8 
REMARK    7  A    between atoms: CE_8  and  NZ_9 
REMARK    8  A    between atoms: N_16  and  CA_17 
REMARK    9  A    between atoms: CA_17  and  CB_20 
REMARK   10  A    between atoms: CA_17  and  C_18 
REMARK       I    between atoms: C_18  and  N_25 
REMARK   11  A    between atoms: CB_20  and  CG1_21 
REMARK   12  A    between atoms: N_25  and  CA_26 
REMARK   13  A    between atoms: CA_26  and  C_27 
REMARK   14  A    between atoms: CA_26  and  CB_29 
REMARK       I    between atoms: C_27  and  N_34 
REMARK   15  A    between atoms: CB_29  and  CG1_30 
REMARK   16  A    between atoms: N_34  and  CA_35 
REMARK   17  A    between atoms: CA_35  and  C_36 
REMARK   18  A    between atoms: CA_35  and  CB_38 
REMARK       I    between atoms: C_36  and  N_47 
REMARK   19  A    between atoms: CB_38  and  CG_39 
REMARK   20  A    between atoms: CG_39  and  CD_40 
REMARK   21  A    between atoms: CD_40  and  CE_41 
REMARK   22  A    between atoms: CE_41  and  NZ_42 
REMARK   23  A    between atoms: N_47  and  CA_48 
REMARK   24  A    between atoms: CA_48  and  CB_51 
REMARK   25  A    between atoms: CA_48  and  C_49 
REMARK       I    between atoms: C_49  and  N_55 
REMARK   26  A    between atoms: N_55  and  CA_56 
REMARK   27  A    between atoms: CA_56  and  C_57 
REMARK   28  A    between atoms: CA_56  and  CB_59 
REMARK       I    between atoms: C_57  and  N_63 
REMARK   29  A    between atoms: N_63  and  CA_64 
REMARK   30  A    between atoms: CA_64  and  CB_67 
REMARK   31  A    between atoms: CA_64  and  C_65 
REMARK   32  A    between atoms: CB_67  and  CG_68 
REMARK   33  A    between atoms: CG_68  and  CD_69 
REMARK   34  A    between atoms: CD_69  and  CE_70 
REMARK   35  A    between atoms: CE_70  and  NZ_71 
ROOT
ATOM      1  N   LYS     1      59.839  43.978  44.089  1.00  0.00    -0.058 N 
ATOM      2  H1  LYS     1      58.857  44.160  44.071  1.00 99.99     0.276 HD
ATOM      3  H2  LYS     1      60.191  44.173  44.985  1.00 99.99     0.276 HD
ATOM      4  H3  LYS     1      60.285  44.631  43.487  1.00 99.99     0.276 HD
ENDROOT
BRANCH   1   5
ATOM      5  CA  LYS     1      60.085  42.583  43.656  1.00  0.00     0.255 C 
BRANCH   5   6
ATOM      6  CB  LYS     1      59.798  42.348  42.154  1.00  0.00     0.040 C 
BRANCH   6   7
ATOM      7  CG  LYS     1      60.289  43.514  41.275  1.00  0.00     0.004 C 
BRANCH   7   8
ATOM      8  CD  LYS     1      59.294  43.931  40.179  1.00  0.00     0.032 C 
BRANCH   8   9
ATOM      9  CE  LYS     1      59.806  43.551  38.781  1.00  0.00     0.206 C 
BRANCH   9  10
ATOM     10  NZ  LYS     1      58.884  43.942  37.698  1.00  0.00    -0.064 N 
ATOM     11  HZ3 LYS     1      58.860  44.937  37.608  1.00 99.99     0.275 HD
ATOM     12  HZ2 LYS     1      57.963  43.602  37.894  1.00 99.99     0.275 HD
ATOM     13  HZ1 LYS     1      59.196  43.545  36.833  1.00 99.99     0.275 HD
ENDBRANCH   9  10
ENDBRANCH   8   9
ENDBRANCH   7   8
ENDBRANCH   6   7
ENDBRANCH   5   6
BRANCH   5  14
ATOM     14  C   LYS     1      61.505  42.171  44.108  1.00  0.00     0.259 C 
ATOM     15  N   ILE     2      62.108  41.175  43.440  1.00  0.00    -0.338 N 
ATOM     16  H   ILE     2      61.620  40.699  42.710  1.00 99.99     0.164 HD
ATOM     17  O   LYS     1      62.118  42.988  44.790  1.00  0.00    -0.271 OA
BRANCH  15  18
ATOM     18  CA  ILE     2      63.469  40.620  43.683  1.00  0.00     0.159 C 
BRANCH  18  19
ATOM     19  CB  ILE     2      64.555  41.430  42.933  1.00  0.00     0.029 C 
ATOM     20  CG2 ILE     2      65.889  40.657  42.871  1.00  0.00     0.002 C 
BRANCH  19  21
ATOM     21  CG1 ILE     2      64.074  41.745  41.503  1.00  0.00     0.002 C 
ATOM     22  CD  ILE     2      64.962  41.204  40.372  1.00  0.00     0.000 C 
ENDBRANCH  19  21
ENDBRANCH  18  19
BRANCH  18  23
ATOM     23  C   ILE     2      63.825  40.306  45.156  1.00  0.00     0.251 C 
ATOM     24  O   ILE     2      63.626  39.167  45.572  1.00  0.00    -0.271 OA
ATOM     25  N   ILE     3      64.306  41.298  45.919  1.00  0.00    -0.338 N 
ATOM     26  H   ILE     3      64.551  42.183  45.525  1.00 99.99     0.164 HD
BRANCH  25  27
ATOM     27  CA  ILE     3      64.609  41.182  47.369  1.00  0.00     0.159 C 
BRANCH  27  28
ATOM     28  C   ILE     3      63.392  41.538  48.258  1.00  0.00     0.251 C 
ATOM     29  N   LYS     4      62.617  42.537  47.830  1.00  0.00    -0.338 N 
ATOM     30  H   LYS     4      62.748  42.919  46.912  1.00 99.99     0.164 HD
ATOM     31  O   ILE     3      63.012  40.684  49.053  1.00  0.00    -0.271 OA
BRANCH  29  32
ATOM     32  CA  LYS     4      61.422  43.087  48.523  1.00  0.00     0.159 C 
BRANCH  32  33
ATOM     33  C   LYS     4      60.129  43.272  47.688  1.00  0.00     0.251 C 
ATOM     34  O   LYS     4      59.862  44.354  47.167  1.00  0.00    -0.271 OA
ATOM     35  N   VAL     5      59.439  42.168  47.427  1.00  0.00    -0.338 N 
ATOM     36  H   VAL     5      59.826  41.272  47.651  1.00 99.99     0.164 HD
BRANCH  35  37
ATOM     37  CA  VAL     5      58.151  42.102  46.697  1.00  0.00     0.159 C 
BRANCH  37  38
ATOM     38  CB  VAL     5      57.894  40.640  46.252  1.00  0.00     0.029 C 
ATOM     39  CG1 VAL     5      57.101  40.547  44.944  1.00  0.00     0.002 C 
ATOM     40  CG2 VAL     5      59.192  39.840  46.069  1.00  0.00     0.002 C 
ENDBRANCH  37  38
BRANCH  37  41
ATOM     41  C   VAL     5      56.991  42.660  47.564  1.00  0.00     0.251 C 
ATOM     42  O   VAL     5      56.599  43.816  47.428  1.00  0.00    -0.271 OA
ATOM     43  N   VAL     6      56.475  41.827  48.468  1.00  0.00    -0.338 N 
ATOM     44  H   VAL     6      56.857  40.910  48.588  1.00 99.99     0.164 HD
BRANCH  43  45
ATOM     45  CA  VAL     6      55.309  42.109  49.342  1.00  0.00     0.159 C 
BRANCH  45  46
ATOM     46  C   VAL     6      55.759  42.649  50.725  1.00  0.00     0.251 C 
ATOM     47  O   VAL     6      55.495  43.796  51.076  1.00  0.00    -0.271 OA
ATOM     48  N   LYS     7      56.334  41.755  51.528  1.00  0.00    -0.336 N 
ATOM     49  H   LYS     7      56.467  40.812  51.213  1.00 99.99     0.164 HD
BRANCH  48  50
ATOM     50  CA  LYS     7      56.855  41.988  52.894  1.00  0.00     0.168 C 
BRANCH  50  51
ATOM     51  CB  LYS     7      56.591  40.776  53.795  1.00  0.00     0.033 C 
BRANCH  51  52
ATOM     52  CG  LYS     7      55.158  40.610  54.300  1.00  0.00     0.004 C 
BRANCH  52  53
ATOM     53  CD  LYS     7      54.873  39.114  54.398  1.00  0.00     0.032 C 
BRANCH  53  54
ATOM     54  CE  LYS     7      55.575  38.470  55.590  1.00  0.00     0.206 C 
BRANCH  54  55
ATOM     55  NZ  LYS     7      55.346  39.298  56.781  1.00  0.00    -0.064 N 
ATOM     56  HZ1 LYS     7      54.402  39.628  56.783  1.00 99.99     0.275 HD
ATOM     57  HZ2 LYS     7      55.517  38.755  57.602  1.00 99.99     0.275 HD
ATOM     58  HZ3 LYS     7      55.973  40.076  56.760  1.00 99.99     0.275 HD
ENDBRANCH  54  55
ENDBRANCH  53  54
ENDBRANCH  52  53
ENDBRANCH  51  52
ENDBRANCH  50  51
BRANCH  50  59
ATOM     59  C   LYS     7      58.388  42.120  52.825  1.00  0.00     0.206 C 
ATOM     60  O   LYS     7      59.054  41.118  52.486  1.00 99.99    -0.646 OA
ATOM     61  OXT LYS     7      58.851  43.239  53.150  1.00 99.99    -0.646 OA
ENDBRANCH  50  59
ENDBRANCH  48  50
ENDBRANCH  45  46
BRANCH  45  62
ATOM     62  CB  VAL     6      54.470  40.814  49.486  1.00  0.00     0.029 C 
ATOM     63  CG1 VAL     6      52.997  41.086  49.808  1.00  0.00     0.002 C 
ATOM     64  CG2 VAL     6      54.521  39.939  48.225  1.00  0.00     0.002 C 
ENDBRANCH  45  62
ENDBRANCH  43  45
ENDBRANCH  37  41
ENDBRANCH  35  37
ENDBRANCH  32  33
BRANCH  32  65
ATOM     65  CB  LYS     4      61.782  44.450  49.129  1.00  0.00     0.032 C 
BRANCH  65  66
ATOM     66  CG  LYS     4      62.689  44.400  50.358  1.00  0.00     0.004 C 
BRANCH  66  67
ATOM     67  CD  LYS     4      63.208  45.815  50.630  1.00  0.00     0.032 C 
BRANCH  67  68
ATOM     68  CE  LYS     4      63.302  46.654  49.355  1.00  0.00     0.206 C 
BRANCH  68  69
ATOM     69  NZ  LYS     4      64.635  47.259  49.226  1.00  0.00    -0.064 N 
ATOM     70  HZ1 LYS     4      64.935  47.603  50.117  1.00 99.99     0.275 HD
ATOM     71  HZ2 LYS     4      65.289  46.579  48.894  1.00 99.99     0.275 HD
ATOM     72  HZ3 LYS     4      64.593  48.020  48.578  1.00 99.99     0.275 HD
ENDBRANCH  68  69
ENDBRANCH  67  68
ENDBRANCH  66  67
ENDBRANCH  65  66
ENDBRANCH  32  65
ENDBRANCH  29  32
ENDBRANCH  27  28
BRANCH  27  73
ATOM     73  CB  ILE     3      65.877  41.988  47.744  1.00  0.00     0.029 C 
ATOM     74  CG2 ILE     3      67.112  41.069  47.830  1.00  0.00     0.002 C 
BRANCH  73  75
ATOM     75  CG1 ILE     3      66.121  43.109  46.716  1.00  0.00     0.002 C 
ATOM     76  CD  ILE     3      65.572  44.488  47.112  1.00  0.00     0.000 C 
ENDBRANCH  73  75
ENDBRANCH  27  73
ENDBRANCH  25  27
ENDBRANCH  18  23
ENDBRANCH  15  18
ENDBRANCH   5  14
ENDBRANCH   1   5
TORSDOF 35
ENDMDL
MODEL 3
REMARK VINA RESULT:      -4.3      1.809      8.569
REMARK WARNING: 32 MAX_TORS EXCEEDED!!!
REMARK  35 active torsions:
REMARK  status: ('A' for Active; 'I' for Inactive)
REMARK    1  A    between atoms: N_1  and  CA_2 
REMARK    2  A    between atoms: CA_2  and  CB_5 
REMARK    3  A    between atoms: CA_2  and  C_3 
REMARK       I    between atoms: C_3  and  N_16 
REMARK    4  A    between atoms: CB_5  and  CG_6 
REMARK    5  A    between atoms: CG_6  and  CD_7 
REMARK    6  A    between atoms: CD_7  and  CE_8 
REMARK    7  A    between atoms: CE_8  and  NZ_9 
REMARK    8  A    between atoms: N_16  and  CA_17 
REMARK    9  A    between atoms: CA_17  and  CB_20 
REMARK   10  A    between atoms: CA_17  and  C_18 
REMARK       I    between atoms: C_18  and  N_25 
REMARK   11  A    between atoms: CB_20  and  CG1_21 
REMARK   12  A    between atoms: N_25  and  CA_26 
REMARK   13  A    between atoms: CA_26  and  C_27 
REMARK   14  A    between atoms: CA_26  and  CB_29 
REMARK       I    between atoms: C_27  and  N_34 
REMARK   15  A    between atoms: CB_29  and  CG1_30 
REMARK   16  A    between atoms: N_34  and  CA_35 
REMARK   17  A    between atoms: CA_35  and  C_36 
REMARK   18  A    between atoms: CA_35  and  CB_38 
REMARK       I    between atoms: C_36  and  N_47 
REMARK   19  A    between atoms: CB_38  and  CG_39 
REMARK   20  A    between atoms: CG_39  and  CD_40 
REMARK   21  A    between atoms: CD_40  and  CE_41 
REMARK   22  A    between atoms: CE_41  and  NZ_42 
REMARK   23  A    between atoms: N_47  and  CA_48 
REMARK   24  A    between atoms: CA_48  and  CB_51 
REMARK   25  A    between atoms: CA_48  and  C_49 
REMARK       I    between atoms: C_49  and  N_55 
REMARK   26  A    between atoms: N_55  and  CA_56 
REMARK   27  A    between atoms: CA_56  and  C_57 
REMARK   28  A    between atoms: CA_56  and  CB_59 
REMARK       I    between atoms: C_57  and  N_63 
REMARK   29  A    between atoms: N_63  and  CA_64 
REMARK   30  A    between atoms: CA_64  and  CB_67 
REMARK   31  A    between atoms: CA_64  and  C_65 
REMARK   32  A    between atoms: CB_67  and  CG_68 
REMARK   33  A    between atoms: CG_68  and  CD_69 
REMARK   34  A    between atoms: CD_69  and  CE_70 
REMARK   35  A    between atoms: CE_70  and  NZ_71 
ROOT
ATOM      1  N   LYS     1      61.514  43.232  43.051  1.00  0.00    -0.058 N 
ATOM      2  H1  LYS     1      61.966  43.948  43.583  1.00 99.99     0.276 HD
ATOM      3  H2  LYS     1      61.665  43.392  42.093  1.00 99.99     0.276 HD
ATOM      4  H3  LYS     1      60.532  43.328  43.178  1.00 99.99     0.276 HD
ENDROOT
BRANCH   1   5
ATOM      5  CA  LYS     1      61.994  41.907  43.505  1.00  0.00     0.255 C 
BRANCH   5   6
ATOM      6  CB  LYS     1      63.089  41.306  42.592  1.00  0.00     0.040 C 
BRANCH   6   7
ATOM      7  CG  LYS     1      64.301  42.244  42.436  1.00  0.00     0.004 C 
BRANCH   7   8
ATOM      8  CD  LYS     1      65.480  41.618  41.673  1.00  0.00     0.032 C 
BRANCH   8   9
ATOM      9  CE  LYS     1      65.503  40.089  41.828  1.00  0.00     0.206 C 
BRANCH   9  10
ATOM     10  NZ  LYS     1      66.392  39.628  42.910  1.00  0.00    -0.064 N 
ATOM     11  HZ3 LYS     1      67.210  39.198  42.527  1.00 99.99     0.275 HD
ATOM     12  HZ2 LYS     1      65.911  38.970  43.492  1.00 99.99     0.275 HD
ATOM     13  HZ1 LYS     1      66.671  40.410  43.472  1.00 99.99     0.275 HD
ENDBRANCH   9  10
ENDBRANCH   8   9
ENDBRANCH   7   8
ENDBRANCH   6   7
ENDBRANCH   5   6
BRANCH   5  14
ATOM     14  C   LYS     1      62.392  42.014  44.995  1.00  0.00     0.259 C 
ATOM     15  N   ILE     2      63.279  41.125  45.469  1.00  0.00    -0.338 N 
ATOM     16  H   ILE     2      63.623  40.399  44.874  1.00 99.99     0.164 HD
ATOM     17  O   LYS     1      62.157  43.086  45.547  1.00  0.00    -0.271 OA
BRANCH  15  18
ATOM     18  CA  ILE     2      63.819  41.040  46.855  1.00  0.00     0.159 C 
BRANCH  18  19
ATOM     19  CB  ILE     2      65.087  41.913  47.025  1.00  0.00     0.029 C 
ATOM     20  CG2 ILE     2      65.930  41.449  48.231  1.00  0.00     0.002 C 
BRANCH  19  21
ATOM     21  CG1 ILE     2      65.940  41.847  45.743  1.00  0.00     0.002 C 
ATOM     22  CD  ILE     2      67.375  42.376  45.875  1.00  0.00     0.000 C 
ENDBRANCH  19  21
ENDBRANCH  18  19
BRANCH  18  23
ATOM     23  C   ILE     2      62.789  41.198  48.000  1.00  0.00     0.251 C 
ATOM     24  O   ILE     2      62.215  40.192  48.408  1.00  0.00    -0.271 OA
ATOM     25  N   ILE     3      62.550  42.430  48.473  1.00  0.00    -0.338 N 
ATOM     26  H   ILE     3      63.105  43.211  48.190  1.00 99.99     0.164 HD
BRANCH  25  27
ATOM     27  CA  ILE     3      61.529  42.759  49.502  1.00  0.00     0.159 C 
BRANCH  27  28
ATOM     28  C   ILE     3      60.091  42.762  48.929  1.00  0.00     0.251 C 
ATOM     29  N   LYS     4      59.921  43.374  47.754  1.00  0.00    -0.338 N 
ATOM     30  H   LYS     4      60.717  43.674  47.223  1.00 99.99     0.164 HD
ATOM     31  O   ILE     3      59.312  41.922  49.370  1.00  0.00    -0.271 OA
BRANCH  29  32
ATOM     32  CA  LYS     4      58.637  43.542  47.024  1.00  0.00     0.159 C 
BRANCH  32  33
ATOM     33  C   LYS     4      57.344  43.678  47.867  1.00  0.00     0.251 C 
ATOM     34  O   LYS     4      56.795  44.769  48.012  1.00  0.00    -0.271 OA
ATOM     35  N   VAL     5      56.782  42.541  48.263  1.00  0.00    -0.338 N 
ATOM     36  H   VAL     5      57.118  41.668  47.906  1.00 99.99     0.164 HD
BRANCH  35  37
ATOM     37  CA  VAL     5      55.578  42.420  49.117  1.00  0.00     0.159 C 
BRANCH  37  38
ATOM     38  CB  VAL     5      54.984  40.998  48.959  1.00  0.00     0.029 C 
ATOM     39  CG1 VAL     5      53.496  40.931  49.316  1.00  0.00     0.002 C 
ATOM     40  CG2 VAL     5      55.148  40.443  47.536  1.00  0.00     0.002 C 
ENDBRANCH  37  38
BRANCH  37  41
ATOM     41  C   VAL     5      55.910  42.752  50.596  1.00  0.00     0.251 C 
ATOM     42  O   VAL     5      55.456  43.757  51.137  1.00  0.00    -0.271 OA
ATOM     43  N   VAL     6      56.727  41.905  51.223  1.00  0.00    -0.338 N 
ATOM     44  H   VAL     6      57.122  41.126  50.735  1.00 99.99     0.164 HD
BRANCH  43  45
ATOM     45  CA  VAL     6      57.112  41.969  52.655  1.00  0.00     0.159 C 
BRANCH  45  46
ATOM     46  C   VAL     6      58.642  42.157  52.820  1.00  0.00     0.251 C 
ATOM     47  O   VAL     6      59.118  43.234  53.166  1.00  0.00    -0.271 OA
ATOM     48  N   LYS     7      59.372  41.052  52.676  1.00  0.00    -0.336 N 
ATOM     49  H   LYS     7      58.924  40.181  52.454  1.00 99.99     0.164 HD
BRANCH  48  50
ATOM     50  CA  LYS     7      60.845  40.935  52.780  1.00  0.00     0.168 C 
BRANCH  50  51
ATOM     51  CB  LYS     7      61.292  40.943  54.246  1.00  0.00     0.033 C 
BRANCH  51  52
ATOM     52  CG  LYS     7      62.735  41.376  54.508  1.00  0.00     0.004 C 
BRANCH  52  53
ATOM     53  CD  LYS     7      62.985  41.265  56.010  1.00  0.00     0.032 C 
BRANCH  53  54
ATOM     54  CE  LYS     7      62.125  40.185  56.659  1.00  0.00     0.206 C 
BRANCH  54  55
ATOM     55  NZ  LYS     7      61.655  40.672  57.963  1.00  0.00    -0.064 N 
ATOM     56  HZ1 LYS     7      62.037  41.579  58.139  1.00 99.99     0.275 HD
ATOM     57  HZ2 LYS     7      60.657  40.719  57.960  1.00 99.99     0.275 HD
ATOM     58  HZ3 LYS     7      61.956  40.037  58.674  1.00 99.99     0.275 HD
ENDBRANCH  54  55
ENDBRANCH  53  54
ENDBRANCH  52  53
ENDBRANCH  51  52
ENDBRANCH  50  51
BRANCH  50  59
ATOM     59  C   LYS     7      61.273  39.561  52.229  1.00  0.00     0.206 C 
ATOM     60  O   LYS     7      60.608  38.557  52.561  1.00 99.99    -0.646 OA
ATOM     61  OXT LYS     7      62.295  39.564  51.503  1.00 99.99    -0.646 OA
ENDBRANCH  50  59
ENDBRANCH  48  50
ENDBRANCH  45  46
BRANCH  45  62
ATOM     62  CB  VAL     6      56.620  40.681  53.361  1.00  0.00     0.029 C 
ATOM     63  CG1 VAL     6      55.348  40.898  54.188  1.00  0.00     0.002 C 
ATOM     64  CG2 VAL     6      56.347  39.537  52.373  1.00  0.00     0.002 C 
ENDBRANCH  45  62
ENDBRANCH  43  45
ENDBRANCH  37  41
ENDBRANCH  35  37
ENDBRANCH  32  33
BRANCH  32  65
ATOM     65  CB  LYS     4      58.447  42.353  46.072  1.00  0.00     0.032 C 
BRANCH  65  66
ATOM     66  CG  LYS     4      58.384  42.709  44.586  1.00  0.00     0.004 C 
BRANCH  66  67
ATOM     67  CD  LYS     4      58.086  41.431  43.798  1.00  0.00     0.032 C 
BRANCH  67  68
ATOM     68  CE  LYS     4      57.330  40.397  44.634  1.00  0.00     0.206 C 
BRANCH  68  69
ATOM     69  NZ  LYS     4      56.139  39.918  43.917  1.00  0.00    -0.064 N 
ATOM     70  HZ1 LYS     4      56.135  40.288  42.987  1.00 99.99     0.275 HD
ATOM     71  HZ2 LYS     4      56.141  38.919  43.879  1.00 99.99     0.275 HD
ATOM     72  HZ3 LYS     4      55.316  40.229  44.396  1.00 99.99     0.275 HD
ENDBRANCH  68  69
ENDBRANCH  67  68
ENDBRANCH  66  67
ENDBRANCH  65  66
ENDBRANCH  32  65
ENDBRANCH  29  32
ENDBRANCH  27  28
BRANCH  27  73
ATOM     73  CB  ILE     3      61.880  44.075  50.239  1.00  0.00     0.029 C 
ATOM     74  CG2 ILE     3      62.565  43.787  51.589  1.00  0.00     0.002 C 
BRANCH  73  75
ATOM     75  CG1 ILE     3      62.789  44.954  49.360  1.00  0.00     0.002 C 
ATOM     76  CD  ILE     3      62.921  46.416  49.815  1.00  0.00     0.000 C 
ENDBRANCH  73  75
ENDBRANCH  27  73
ENDBRANCH  25  27
ENDBRANCH  18  23
ENDBRANCH  15  18
ENDBRANCH   5  14
ENDBRANCH   1   5
TORSDOF 35
ENDMDL
MODEL 4
REMARK VINA RESULT:      -4.2      2.206      4.340
REMARK WARNING: 32 MAX_TORS EXCEEDED!!!
REMARK  35 active torsions:
REMARK  status: ('A' for Active; 'I' for Inactive)
REMARK    1  A    between atoms: N_1  and  CA_2 
REMARK    2  A    between atoms: CA_2  and  CB_5 
REMARK    3  A    between atoms: CA_2  and  C_3 
REMARK       I    between atoms: C_3  and  N_16 
REMARK    4  A    between atoms: CB_5  and  CG_6 
REMARK    5  A    between atoms: CG_6  and  CD_7 
REMARK    6  A    between atoms: CD_7  and  CE_8 
REMARK    7  A    between atoms: CE_8  and  NZ_9 
REMARK    8  A    between atoms: N_16  and  CA_17 
REMARK    9  A    between atoms: CA_17  and  CB_20 
REMARK   10  A    between atoms: CA_17  and  C_18 
REMARK       I    between atoms: C_18  and  N_25 
REMARK   11  A    between atoms: CB_20  and  CG1_21 
REMARK   12  A    between atoms: N_25  and  CA_26 
REMARK   13  A    between atoms: CA_26  and  C_27 
REMARK   14  A    between atoms: CA_26  and  CB_29 
REMARK       I    between atoms: C_27  and  N_34 
REMARK   15  A    between atoms: CB_29  and  CG1_30 
REMARK   16  A    between atoms: N_34  and  CA_35 
REMARK   17  A    between atoms: CA_35  and  C_36 
REMARK   18  A    between atoms: CA_35  and  CB_38 
REMARK       I    between atoms: C_36  and  N_47 
REMARK   19  A    between atoms: CB_38  and  CG_39 
REMARK   20  A    between atoms: CG_39  and  CD_40 
REMARK   21  A    between atoms: CD_40  and  CE_41 
REMARK   22  A    between atoms: CE_41  and  NZ_42 
REMARK   23  A    between atoms: N_47  and  CA_48 
REMARK   24  A    between atoms: CA_48  and  CB_51 
REMARK   25  A    between atoms: CA_48  and  C_49 
REMARK       I    between atoms: C_49  and  N_55 
REMARK   26  A    between atoms: N_55  and  CA_56 
REMARK   27  A    between atoms: CA_56  and  C_57 
REMARK   28  A    between atoms: CA_56  and  CB_59 
REMARK       I    between atoms: C_57  and  N_63 
REMARK   29  A    between atoms: N_63  and  CA_64 
REMARK   30  A    between atoms: CA_64  and  CB_67 
REMARK   31  A    between atoms: CA_64  and  C_65 
REMARK   32  A    between atoms: CB_67  and  CG_68 
REMARK   33  A    between atoms: CG_68  and  CD_69 
REMARK   34  A    between atoms: CD_69  and  CE_70 
REMARK   35  A    between atoms: CE_70  and  NZ_71 
ROOT
ATOM      1  N   LYS     1      61.532  42.616  45.211  1.00  0.00    -0.058 N 
ATOM      2  H1  LYS     1      62.477  42.552  44.891  1.00 99.99     0.276 HD
ATOM      3  H2  LYS     1      61.518  43.005  46.112  1.00 99.99     0.276 HD
ATOM      4  H3  LYS     1      61.182  41.692  45.322  1.00 99.99     0.276 HD
ENDROOT
BRANCH   1   5
ATOM      5  CA  LYS     1      60.735  43.385  44.228  1.00  0.00     0.255 C 
BRANCH   5   6
ATOM      6  CB  LYS     1      61.019  42.985  42.761  1.00  0.00     0.040 C 
BRANCH   6   7
ATOM      7  CG  LYS     1      60.723  41.498  42.492  1.00  0.00     0.004 C 
BRANCH   7   8
ATOM      8  CD  LYS     1      60.108  41.223  41.110  1.00  0.00     0.032 C 
BRANCH   8   9
ATOM      9  CE  LYS     1      58.998  42.233  40.776  1.00  0.00     0.206 C 
BRANCH   9  10
ATOM     10  NZ  LYS     1      57.645  41.729  41.070  1.00  0.00    -0.064 N 
ATOM     11  HZ3 LYS     1      56.976  42.158  40.462  1.00 99.99     0.275 HD
ATOM     12  HZ2 LYS     1      57.405  41.925  42.022  1.00 99.99     0.275 HD
ATOM     13  HZ1 LYS     1      57.619  40.737  40.930  1.00 99.99     0.275 HD
ENDBRANCH   9  10
ENDBRANCH   8   9
ENDBRANCH   7   8
ENDBRANCH   6   7
ENDBRANCH   5   6
BRANCH   5  14
ATOM     14  C   LYS     1      59.246  43.308  44.636  1.00  0.00     0.259 C 
ATOM     15  N   ILE     2      58.869  42.295  45.431  1.00  0.00    -0.338 N 
ATOM     16  H   ILE     2      59.534  41.600  45.701  1.00 99.99     0.164 HD
ATOM     17  O   LYS     1      58.592  44.339  44.508  1.00  0.00    -0.271 OA
BRANCH  15  18
ATOM     18  CA  ILE     2      57.503  42.024  45.962  1.00  0.00     0.159 C 
BRANCH  18  19
ATOM     19  CB  ILE     2      57.077  40.556  45.714  1.00  0.00     0.029 C 
ATOM     20  CG2 ILE     2      55.546  40.392  45.808  1.00  0.00     0.002 C 
BRANCH  19  21
ATOM     21  CG1 ILE     2      57.561  40.102  44.323  1.00  0.00     0.002 C 
ATOM     22  CD  ILE     2      57.378  38.608  44.014  1.00  0.00     0.000 C 
ENDBRANCH  19  21
ENDBRANCH  18  19
BRANCH  18  23
ATOM     23  C   ILE     2      57.216  42.528  47.397  1.00  0.00     0.251 C 
ATOM     24  O   ILE     2      56.553  43.553  47.531  1.00  0.00    -0.271 OA
ATOM     25  N   ILE     3      57.729  41.839  48.426  1.00  0.00    -0.338 N 
ATOM     26  H   ILE     3      58.176  40.956  48.288  1.00 99.99     0.164 HD
BRANCH  25  27
ATOM     27  CA  ILE     3      57.622  42.241  49.853  1.00  0.00     0.159 C 
BRANCH  27  28
ATOM     28  C   ILE     3      58.926  41.973  50.643  1.00  0.00     0.251 C 
ATOM     29  N   LYS     4      59.656  40.928  50.246  1.00  0.00    -0.338 N 
ATOM     30  H   LYS     4      59.431  40.451  49.393  1.00 99.99     0.164 HD
ATOM     31  O   ILE     3      59.383  42.904  51.299  1.00  0.00    -0.271 OA
BRANCH  29  32
ATOM     32  CA  LYS     4      60.919  40.447  50.866  1.00  0.00     0.159 C 
BRANCH  32  33
ATOM     33  C   LYS     4      61.817  39.503  50.026  1.00  0.00     0.251 C 
ATOM     34  O   LYS     4      62.377  38.537  50.542  1.00  0.00    -0.271 OA
ATOM     35  N   VAL     5      61.798  39.695  48.711  1.00  0.00    -0.338 N 
ATOM     36  H   VAL     5      61.132  40.324  48.309  1.00 99.99     0.164 HD
BRANCH  35  37
ATOM     37  CA  VAL     5      62.609  38.956  47.716  1.00  0.00     0.159 C 
BRANCH  37  38
ATOM     38  CB  VAL     5      61.728  38.637  46.481  1.00  0.00     0.029 C 
ATOM     39  CG1 VAL     5      61.549  37.133  46.249  1.00  0.00     0.002 C 
ATOM     40  CG2 VAL     5      60.330  39.265  46.573  1.00  0.00     0.002 C 
ENDBRANCH  37  38
BRANCH  37  41
ATOM     41  C   VAL     5      63.883  39.755  47.332  1.00  0.00     0.251 C 
ATOM     42  O   VAL     5      64.805  39.898  48.131  1.00  0.00    -0.271 OA
ATOM     43  N   VAL     6      63.900  40.289  46.110  1.00  0.00    -0.338 N 
ATOM     44  H   VAL     6      63.108  40.198  45.506  1.00 99.99     0.164 HD
BRANCH  43  45
ATOM     45  CA  VAL     6      65.040  41.015  45.497  1.00  0.00     0.159 C 
BRANCH  45  46
ATOM     46  C   VAL     6      64.956  42.538  45.776  1.00  0.00     0.251 C 
ATOM     47  O   VAL     6      64.521  43.316  44.932  1.00  0.00    -0.271 OA
ATOM     48  N   LYS     7      65.271  42.910  47.016  1.00  0.00    -0.336 N 
ATOM     49  H   LYS     7      65.560  42.221  47.687  1.00 99.99     0.164 HD
BRANCH  48  50
ATOM     50  CA  LYS     7      65.277  44.287  47.560  1.00  0.00     0.168 C 
BRANCH  50  51
ATOM     51  CB  LYS     7      63.925  44.630  48.197  1.00  0.00     0.033 C 
BRANCH  51  52
ATOM     52  CG  LYS     7      63.396  43.637  49.231  1.00  0.00     0.004 C 
BRANCH  52  53
ATOM     53  CD  LYS     7      63.143  44.407  50.524  1.00  0.00     0.032 C 
BRANCH  53  54
ATOM     54  CE  LYS     7      62.873  45.887  50.270  1.00  0.00     0.206 C 
BRANCH  54  55
ATOM     55  NZ  LYS     7      63.969  46.675  50.850  1.00  0.00    -0.064 N 
ATOM     56  HZ1 LYS     7      64.483  46.111  51.495  1.00 99.99     0.275 HD
ATOM     57  HZ2 LYS     7      64.573  46.993  50.120  1.00 99.99     0.275 HD
ATOM     58  HZ3 LYS     7      63.583  47.464  51.328  1.00 99.99     0.275 HD
ENDBRANCH  54  55
ENDBRANCH  53  54
ENDBRANCH  52  53
ENDBRANCH  51  52
ENDBRANCH  50  51
BRANCH  50  59
ATOM     59  C   LYS     7      66.301  44.361  48.710  1.00  0.00     0.206 C 
ATOM     60  O   LYS     7      66.956  43.334  48.986  1.00 99.99    -0.646 OA
ATOM     61  OXT LYS     7      66.369  45.464  49.302  1.00 99.99    -0.646 OA
ENDBRANCH  50  59
ENDBRANCH  48  50
ENDBRANCH  45  46
BRANCH  45  62
ATOM     62  CB  VAL     6      65.057  40.719  43.976  1.00  0.00     0.029 C 
ATOM     63  CG1 VAL     6      66.469  40.485  43.426  1.00  0.00     0.002 C 
ATOM     64  CG2 VAL     6      64.202  39.498  43.605  1.00  0.00     0.002 C 
ENDBRANCH  45  62
ENDBRANCH  43  45
ENDBRANCH  37  41
ENDBRANCH  35  37
ENDBRANCH  32  33
BRANCH  32  65
ATOM     65  CB  LYS     4      60.585  39.723  52.177  1.00  0.00     0.032 C 
BRANCH  65  66
ATOM     66  CG  LYS     4      60.868  40.517  53.453  1.00  0.00     0.004 C 
BRANCH  66  67
ATOM     67  CD  LYS     4      62.073  41.426  53.195  1.00  0.00     0.032 C 
BRANCH  67  68
ATOM     68  CE  LYS     4      63.381  40.812  53.696  1.00  0.00     0.206 C 
BRANCH  68  69
ATOM     69  NZ  LYS     4      64.185  40.311  52.573  1.00  0.00    -0.064 N 
ATOM     70  HZ1 LYS     4      65.041  39.922  52.919  1.00 99.99     0.275 HD
ATOM     71  HZ2 LYS     4      63.677  39.608  52.074  1.00 99.99     0.275 HD
ATOM     72  HZ3 LYS     4      64.397  41.067  51.953  1.00 99.99     0.275 HD
ENDBRANCH  68  69
ENDBRANCH  67  68
ENDBRANCH  66  67
ENDBRANCH  65  66
ENDBRANCH  32  65
ENDBRANCH  29  32
ENDBRANCH  27  28
BRANCH  27  73
ATOM     73  CB  ILE     3      56.378  41.606  50.522  1.00  0.00     0.029 C 
ATOM     74  CG2 ILE     3      55.358  42.687  50.933  1.00  0.00     0.002 C 
BRANCH  73  75
ATOM     75  CG1 ILE     3      55.719  40.590  49.571  1.00  0.00     0.002 C 
ATOM     76  CD  ILE     3      54.239  40.856  49.256  1.00  0.00     0.000 C 
ENDBRANCH  73  75
ENDBRANCH  27  73
ENDBRANCH  25  27
ENDBRANCH  18  23
ENDBRANCH  15  18
ENDBRANCH   5  14
ENDBRANCH   1   5
TORSDOF 35
ENDMDL
MODEL 5
REMARK VINA RESULT:      -4.2      2.261      4.324
REMARK WARNING: 32 MAX_TORS EXCEEDED!!!
REMARK  35 active torsions:
REMARK  status: ('A' for Active; 'I' for Inactive)
REMARK    1  A    between atoms: N_1  and  CA_2 
REMARK    2  A    between atoms: CA_2  and  CB_5 
REMARK    3  A    between atoms: CA_2  and  C_3 
REMARK       I    between atoms: C_3  and  N_16 
REMARK    4  A    between atoms: CB_5  and  CG_6 
REMARK    5  A    between atoms: CG_6  and  CD_7 
REMARK    6  A    between atoms: CD_7  and  CE_8 
REMARK    7  A    between atoms: CE_8  and  NZ_9 
REMARK    8  A    between atoms: N_16  and  CA_17 
REMARK    9  A    between atoms: CA_17  and  CB_20 
REMARK   10  A    between atoms: CA_17  and  C_18 
REMARK       I    between atoms: C_18  and  N_25 
REMARK   11  A    between atoms: CB_20  and  CG1_21 
REMARK   12  A    between atoms: N_25  and  CA_26 
REMARK   13  A    between atoms: CA_26  and  C_27 
REMARK   14  A    between atoms: CA_26  and  CB_29 
REMARK       I    between atoms: C_27  and  N_34 
REMARK   15  A    between atoms: CB_29  and  CG1_30 
REMARK   16  A    between atoms: N_34  and  CA_35 
REMARK   17  A    between atoms: CA_35  and  C_36 
REMARK   18  A    between atoms: CA_35  and  CB_38 
REMARK       I    between atoms: C_36  and  N_47 
REMARK   19  A    between atoms: CB_38  and  CG_39 
REMARK   20  A    between atoms: CG_39  and  CD_40 
REMARK   21  A    between atoms: CD_40  and  CE_41 
REMARK   22  A    between atoms: CE_41  and  NZ_42 
REMARK   23  A    between atoms: N_47  and  CA_48 
REMARK   24  A    between atoms: CA_48  and  CB_51 
REMARK   25  A    between atoms: CA_48  and  C_49 
REMARK       I    between atoms: C_49  and  N_55 
REMARK   26  A    between atoms: N_55  and  CA_56 
REMARK   27  A    between atoms: CA_56  and  C_57 
REMARK   28  A    between atoms: CA_56  and  CB_59 
REMARK       I    between atoms: C_57  and  N_63 
REMARK   29  A    between atoms: N_63  and  CA_64 
REMARK   30  A    between atoms: CA_64  and  CB_67 
REMARK   31  A    between atoms: CA_64  and  C_65 
REMARK   32  A    between atoms: CB_67  and  CG_68 
REMARK   33  A    between atoms: CG_68  and  CD_69 
REMARK   34  A    between atoms: CD_69  and  CE_70 
REMARK   35  A    between atoms: CE_70  and  NZ_71 
ROOT
ATOM      1  N   LYS     1      59.898  43.035  46.632  1.00  0.00    -0.058 N 
ATOM      2  H1  LYS     1      60.781  43.475  46.477  1.00 99.99     0.276 HD
ATOM      3  H2  LYS     1      59.849  42.719  47.561  1.00 99.99     0.276 HD
ATOM      4  H3  LYS     1      59.862  42.211  46.077  1.00 99.99     0.276 HD
ENDROOT
BRANCH   1   5
ATOM      5  CA  LYS     1      58.813  43.979  46.278  1.00  0.00     0.255 C 
BRANCH   5   6
ATOM      6  CB  LYS     1      58.406  43.912  44.786  1.00  0.00     0.040 C 
BRANCH   6   7
ATOM      7  CG  LYS     1      59.055  42.723  44.055  1.00  0.00     0.004 C 
BRANCH   7   8
ATOM      8  CD  LYS     1      58.134  41.499  43.915  1.00  0.00     0.032 C 
BRANCH   8   9
ATOM      9  CE  LYS     1      58.873  40.307  43.287  1.00  0.00     0.206 C 
BRANCH   9  10
ATOM     10  NZ  LYS     1      59.693  39.556  44.255  1.00  0.00    -0.064 N 
ATOM     11  HZ3 LYS     1      59.504  39.870  45.185  1.00 99.99     0.275 HD
ATOM     12  HZ2 LYS     1      60.665  39.682  44.051  1.00 99.99     0.275 HD
ATOM     13  HZ1 LYS     1      59.476  38.580  44.193  1.00 99.99     0.275 HD
ENDBRANCH   9  10
ENDBRANCH   8   9
ENDBRANCH   7   8
ENDBRANCH   6   7
ENDBRANCH   5   6
BRANCH   5  14
ATOM     14  C   LYS     1      57.644  43.778  47.269  1.00  0.00     0.259 C 
ATOM     15  N   ILE     2      57.425  42.537  47.732  1.00  0.00    -0.338 N 
ATOM     16  H   ILE     2      57.981  41.776  47.399  1.00 99.99     0.164 HD
ATOM     17  O   LYS     1      57.227  44.786  47.831  1.00  0.00    -0.271 OA
BRANCH  15  18
ATOM     18  CA  ILE     2      56.375  42.107  48.698  1.00  0.00     0.159 C 
BRANCH  18  19
ATOM     19  CB  ILE     2      55.852  40.686  48.373  1.00  0.00     0.029 C 
ATOM     20  CG2 ILE     2      54.363  40.537  48.747  1.00  0.00     0.002 C 
BRANCH  19  21
ATOM     21  CG1 ILE     2      56.041  40.392  46.872  1.00  0.00     0.002 C 
ATOM     22  CD  ILE     2      56.851  39.130  46.542  1.00  0.00     0.000 C 
ENDBRANCH  19  21
ENDBRANCH  18  19
BRANCH  18  23
ATOM     23  C   ILE     2      56.692  42.333  50.196  1.00  0.00     0.251 C 
ATOM     24  O   ILE     2      56.213  43.320  50.748  1.00  0.00    -0.271 OA
ATOM     25  N   ILE     3      57.498  41.458  50.813  1.00  0.00    -0.338 N 
ATOM     26  H   ILE     3      57.788  40.614  50.365  1.00 99.99     0.164 HD
BRANCH  25  27
ATOM     27  CA  ILE     3      57.970  41.584  52.217  1.00  0.00     0.159 C 
BRANCH  27  28
ATOM     28  C   ILE     3      59.306  42.359  52.326  1.00  0.00     0.251 C 
ATOM     29  N   LYS     4      60.143  42.243  51.292  1.00  0.00    -0.338 N 
ATOM     30  H   LYS     4      59.841  41.800  50.445  1.00 99.99     0.164 HD
ATOM     31  O   ILE     3      59.352  43.284  53.130  1.00  0.00    -0.271 OA
BRANCH  29  32
ATOM     32  CA  LYS     4      61.494  42.855  51.178  1.00  0.00     0.159 C 
BRANCH  32  33
ATOM     33  C   LYS     4      61.843  43.581  49.854  1.00  0.00     0.251 C 
ATOM     34  O   LYS     4      60.969  44.117  49.176  1.00  0.00    -0.271 OA
ATOM     35  N   VAL     5      63.138  43.739  49.599  1.00  0.00    -0.338 N 
ATOM     36  H   VAL     5      63.816  43.517  50.301  1.00 99.99     0.164 HD
BRANCH  35  37
ATOM     37  CA  VAL     5      63.712  44.352  48.379  1.00  0.00     0.159 C 
BRANCH  37  38
ATOM     38  CB  VAL     5      64.997  45.130  48.759  1.00  0.00     0.029 C 
ATOM     39  CG1 VAL     5      64.827  45.981  50.021  1.00  0.00     0.002 C 
ATOM     40  CG2 VAL     5      66.205  44.207  48.978  1.00  0.00     0.002 C 
ENDBRANCH  37  38
BRANCH  37  41
ATOM     41  C   VAL     5      63.981  43.279  47.291  1.00  0.00     0.251 C 
ATOM     42  O   VAL     5      64.435  43.590  46.192  1.00  0.00    -0.271 OA
ATOM     43  N   VAL     6      63.668  42.022  47.609  1.00  0.00    -0.338 N 
ATOM     44  H   VAL     6      63.249  41.813  48.493  1.00 99.99     0.164 HD
BRANCH  43  45
ATOM     45  CA  VAL     6      63.917  40.825  46.768  1.00  0.00     0.159 C 
BRANCH  45  46
ATOM     46  C   VAL     6      62.655  39.930  46.673  1.00  0.00     0.251 C 
ATOM     47  O   VAL     6      62.347  39.373  45.623  1.00  0.00    -0.271 OA
ATOM     48  N   LYS     7      62.014  39.722  47.822  1.00  0.00    -0.336 N 
ATOM     49  H   LYS     7      62.347  40.152  48.666  1.00 99.99     0.164 HD
BRANCH  48  50
ATOM     50  CA  LYS     7      60.790  38.914  48.028  1.00  0.00     0.168 C 
BRANCH  50  51
ATOM     51  CB  LYS     7      61.064  37.737  48.972  1.00  0.00     0.033 C 
BRANCH  51  52
ATOM     52  CG  LYS     7      62.534  37.418  49.243  1.00  0.00     0.004 C 
BRANCH  52  53
ATOM     53  CD  LYS     7      62.607  36.670  50.571  1.00  0.00     0.032 C 
BRANCH  53  54
ATOM     54  CE  LYS     7      62.927  35.190  50.383  1.00  0.00     0.206 C 
BRANCH  54  55
ATOM     55  NZ  LYS     7      63.631  35.015  49.106  1.00  0.00    -0.064 N 
ATOM     56  HZ1 LYS     7      64.612  34.919  49.274  1.00 99.99     0.275 HD
ATOM     57  HZ2 LYS     7      63.284  34.199  48.644  1.00 99.99     0.275 HD
ATOM     58  HZ3 LYS     7      63.466  35.817  48.532  1.00 99.99     0.275 HD
ENDBRANCH  54  55
ENDBRANCH  53  54
ENDBRANCH  52  53
ENDBRANCH  51  52
ENDBRANCH  50  51
BRANCH  50  59
ATOM     59  C   LYS     7      59.739  39.780  48.748  1.00  0.00     0.206 C 
ATOM     60  O   LYS     7      59.775  41.017  48.578  1.00 99.99    -0.646 OA
ATOM     61  OXT LYS     7      58.938  39.157  49.484  1.00 99.99    -0.646 OA
ENDBRANCH  50  59
ENDBRANCH  48  50
ENDBRANCH  45  46
BRANCH  45  62
ATOM     62  CB  VAL     6      65.121  40.047  47.355  1.00  0.00     0.029 C 
ATOM     63  CG1 VAL     6      65.150  40.054  48.888  1.00  0.00     0.002 C 
ATOM     64  CG2 VAL     6      65.157  38.583  46.892  1.00  0.00     0.002 C 
ENDBRANCH  45  62
ENDBRANCH  43  45
ENDBRANCH  37  41
ENDBRANCH  35  37
ENDBRANCH  32  33
BRANCH  32  65
ATOM     65  CB  LYS     4      62.553  41.767  51.403  1.00  0.00     0.032 C 
BRANCH  65  66
ATOM     66  CG  LYS     4      62.008  40.346  51.554  1.00  0.00     0.004 C 
BRANCH  66  67
ATOM     67  CD  LYS     4      62.580  39.747  52.842  1.00  0.00     0.032 C 
BRANCH  67  68
ATOM     68  CE  LYS     4      61.550  39.711  53.972  1.00  0.00     0.206 C 
BRANCH  68  69
ATOM     69  NZ  LYS     4      61.560  40.972  54.727  1.00  0.00    -0.064 N 
ATOM     70  HZ1 LYS     4      62.381  41.016  55.298  1.00 99.99     0.275 HD
ATOM     71  HZ2 LYS     4      61.552  41.749  54.096  1.00 99.99     0.275 HD
ATOM     72  HZ3 LYS     4      60.751  41.015  55.313  1.00 99.99     0.275 HD
ENDBRANCH  68  69
ENDBRANCH  67  68
ENDBRANCH  66  67
ENDBRANCH  65  66
ENDBRANCH  32  65
ENDBRANCH  29  32
ENDBRANCH  27  28
BRANCH  27  73
ATOM     73  CB  ILE     3      58.021  40.204  52.918  1.00  0.00     0.029 C 
ATOM     74  CG2 ILE     3      57.911  40.355  54.448  1.00  0.00     0.002 C 
BRANCH  73  75
ATOM     75  CG1 ILE     3      56.895  39.295  52.392  1.00  0.00     0.002 C 
ATOM     76  CD  ILE     3      56.634  38.031  53.225  1.00  0.00     0.000 C 
ENDBRANCH  73  75
ENDBRANCH  27  73
ENDBRANCH  25  27
ENDBRANCH  18  23
ENDBRANCH  15  18
ENDBRANCH   5  14
ENDBRANCH   1   5
TORSDOF 35
ENDMDL
MODEL 6
REMARK VINA RESULT:      -4.2      2.306      9.441
REMARK WARNING: 32 MAX_TORS EXCEEDED!!!
REMARK  35 active torsions:
REMARK  status: ('A' for Active; 'I' for Inactive)
REMARK    1  A    between atoms: N_1  and  CA_2 
REMARK    2  A    between atoms: CA_2  and  CB_5 
REMARK    3  A    between atoms: CA_2  and  C_3 
REMARK       I    between atoms: C_3  and  N_16 
REMARK    4  A    between atoms: CB_5  and  CG_6 
REMARK    5  A    between atoms: CG_6  and  CD_7 
REMARK    6  A    between atoms: CD_7  and  CE_8 
REMARK    7  A    between atoms: CE_8  and  NZ_9 
REMARK    8  A    between atoms: N_16  and  CA_17 
REMARK    9  A    between atoms: CA_17  and  CB_20 
REMARK   10  A    between atoms: CA_17  and  C_18 
REMARK       I    between atoms: C_18  and  N_25 
REMARK   11  A    between atoms: CB_20  and  CG1_21 
REMARK   12  A    between atoms: N_25  and  CA_26 
REMARK   13  A    between atoms: CA_26  and  C_27 
REMARK   14  A    between atoms: CA_26  and  CB_29 
REMARK       I    between atoms: C_27  and  N_34 
REMARK   15  A    between atoms: CB_29  and  CG1_30 
REMARK   16  A    between atoms: N_34  and  CA_35 
REMARK   17  A    between atoms: CA_35  and  C_36 
REMARK   18  A    between atoms: CA_35  and  CB_38 
REMARK       I    between atoms: C_36  and  N_47 
REMARK   19  A    between atoms: CB_38  and  CG_39 
REMARK   20  A    between atoms: CG_39  and  CD_40 
REMARK   21  A    between atoms: CD_40  and  CE_41 
REMARK   22  A    between atoms: CE_41  and  NZ_42 
REMARK   23  A    between atoms: N_47  and  CA_48 
REMARK   24  A    between atoms: CA_48  and  CB_51 
REMARK   25  A    between atoms: CA_48  and  C_49 
REMARK       I    between atoms: C_49  and  N_55 
REMARK   26  A    between atoms: N_55  and  CA_56 
REMARK   27  A    between atoms: CA_56  and  C_57 
REMARK   28  A    between atoms: CA_56  and  CB_59 
REMARK       I    between atoms: C_57  and  N_63 
REMARK   29  A    between atoms: N_63  and  CA_64 
REMARK   30  A    between atoms: CA_64  and  CB_67 
REMARK   31  A    between atoms: CA_64  and  C_65 
REMARK   32  A    between atoms: CB_67  and  CG_68 
REMARK   33  A    between atoms: CG_68  and  CD_69 
REMARK   34  A    between atoms: CD_69  and  CE_70 
REMARK   35  A    between atoms: CE_70  and  NZ_71 
ROOT
ATOM      1  N   LYS     1      62.214  43.256  52.215  1.00  0.00    -0.058 N 
ATOM      2  H1  LYS     1      62.082  42.630  52.982  1.00 99.99     0.276 HD
ATOM      3  H2  LYS     1      63.096  43.682  52.289  1.00 99.99     0.276 HD
ATOM      4  H3  LYS     1      61.559  43.999  52.307  1.00 99.99     0.276 HD
ENDROOT
BRANCH   1   5
ATOM      5  CA  LYS     1      62.025  42.519  50.944  1.00  0.00     0.255 C 
BRANCH   5   6
ATOM      6  CB  LYS     1      60.713  41.701  50.900  1.00  0.00     0.040 C 
BRANCH   6   7
ATOM      7  CG  LYS     1      59.606  42.321  51.772  1.00  0.00     0.004 C 
BRANCH   7   8
ATOM      8  CD  LYS     1      58.831  41.298  52.619  1.00  0.00     0.032 C 
BRANCH   8   9
ATOM      9  CE  LYS     1      59.642  40.852  53.846  1.00  0.00     0.206 C 
BRANCH   9  10
ATOM     10  NZ  LYS     1      58.807  40.594  55.032  1.00  0.00    -0.064 N 
ATOM     11  HZ3 LYS     1      58.896  39.639  55.317  1.00 99.99     0.275 HD
ATOM     12  HZ2 LYS     1      57.848  40.791  54.825  1.00 99.99     0.275 HD
ATOM     13  HZ1 LYS     1      59.102  41.185  55.786  1.00 99.99     0.275 HD
ENDBRANCH   9  10
ENDBRANCH   8   9
ENDBRANCH   7   8
ENDBRANCH   6   7
ENDBRANCH   5   6
BRANCH   5  14
ATOM     14  C   LYS     1      62.201  43.510  49.771  1.00  0.00     0.259 C 
ATOM     15  N   ILE     2      63.446  43.915  49.477  1.00  0.00    -0.338 N 
ATOM     16  H   ILE     2      64.214  43.610  50.040  1.00 99.99     0.164 HD
ATOM     17  O   LYS     1      61.267  43.585  48.977  1.00  0.00    -0.271 OA
BRANCH  15  18
ATOM     18  CA  ILE     2      63.860  44.846  48.390  1.00  0.00     0.159 C 
BRANCH  18  19
ATOM     19  CB  ILE     2      64.194  46.254  48.944  1.00  0.00     0.029 C 
ATOM     20  CG2 ILE     2      62.917  47.006  49.372  1.00  0.00     0.002 C 
BRANCH  19  21
ATOM     21  CG1 ILE     2      65.147  46.127  50.149  1.00  0.00     0.002 C 
ATOM     22  CD  ILE     2      66.574  46.646  49.920  1.00  0.00     0.000 C 
ENDBRANCH  19  21
ENDBRANCH  18  19
BRANCH  18  23
ATOM     23  C   ILE     2      64.904  44.302  47.386  1.00  0.00     0.251 C 
ATOM     24  O   ILE     2      65.709  45.092  46.899  1.00  0.00    -0.271 OA
ATOM     25  N   ILE     3      64.863  42.999  47.071  1.00  0.00    -0.338 N 
ATOM     26  H   ILE     3      64.264  42.367  47.560  1.00 99.99     0.164 HD
BRANCH  25  27
ATOM     27  CA  ILE     3      65.733  42.344  46.060  1.00  0.00     0.159 C 
BRANCH  27  28
ATOM     28  C   ILE     3      64.934  41.823  44.840  1.00  0.00     0.251 C 
ATOM     29  N   LYS     4      63.646  41.539  45.052  1.00  0.00    -0.338 N 
ATOM     30  H   LYS     4      63.209  41.798  45.917  1.00 99.99     0.164 HD
ATOM     31  O   ILE     3      65.399  42.052  43.728  1.00  0.00    -0.271 OA
BRANCH  29  32
ATOM     32  CA  LYS     4      62.688  40.992  44.057  1.00  0.00     0.159 C 
BRANCH  32  33
ATOM     33  C   LYS     4      61.382  41.788  43.804  1.00  0.00     0.251 C 
ATOM     34  O   LYS     4      60.989  42.631  44.608  1.00  0.00    -0.271 OA
ATOM     35  N   VAL     5      60.826  41.632  42.607  1.00  0.00    -0.338 N 
ATOM     36  H   VAL     5      61.317  41.136  41.889  1.00 99.99     0.164 HD
BRANCH  35  37
ATOM     37  CA  VAL     5      59.555  42.245  42.156  1.00  0.00     0.159 C 
BRANCH  37  38
ATOM     38  CB  VAL     5      59.648  42.547  40.639  1.00  0.00     0.029 C 
ATOM     39  CG1 VAL     5      59.634  44.047  40.328  1.00  0.00     0.002 C 
ATOM     40  CG2 VAL     5      60.905  41.948  39.992  1.00  0.00     0.002 C 
ENDBRANCH  37  38
BRANCH  37  41
ATOM     41  C   VAL     5      58.346  41.333  42.496  1.00  0.00     0.251 C 
ATOM     42  O   VAL     5      57.674  40.816  41.608  1.00  0.00    -0.271 OA
ATOM     43  N   VAL     6      58.073  41.172  43.791  1.00  0.00    -0.338 N 
ATOM     44  H   VAL     6      58.609  41.653  44.486  1.00 99.99     0.164 HD
BRANCH  43  45
ATOM     45  CA  VAL     6      57.027  40.281  44.353  1.00  0.00     0.159 C 
BRANCH  45  46
ATOM     46  C   VAL     6      56.301  40.949  45.550  1.00  0.00     0.251 C 
ATOM     47  O   VAL     6      55.117  40.724  45.781  1.00  0.00    -0.271 OA
ATOM     48  N   LYS     7      57.075  41.675  46.355  1.00  0.00    -0.336 N 
ATOM     49  H   LYS     7      58.054  41.775  46.153  1.00 99.99     0.164 HD
BRANCH  48  50
ATOM     50  CA  LYS     7      56.656  42.418  47.565  1.00  0.00     0.168 C 
BRANCH  50  51
ATOM     51  CB  LYS     7      57.165  41.727  48.835  1.00  0.00     0.033 C 
BRANCH  51  52
ATOM     52  CG  LYS     7      56.100  41.109  49.740  1.00  0.00     0.004 C 
BRANCH  52  53
ATOM     53  CD  LYS     7      54.971  42.125  49.888  1.00  0.00     0.032 C 
BRANCH  53  54
ATOM     54  CE  LYS     7      53.594  41.481  49.752  1.00  0.00     0.206 C 
BRANCH  54  55
ATOM     55  NZ  LYS     7      53.519  40.790  48.459  1.00  0.00    -0.064 N 
ATOM     56  HZ1 LYS     7      52.714  40.198  48.442  1.00 99.99     0.275 HD
ATOM     57  HZ2 LYS     7      53.460  41.464  47.724  1.00 99.99     0.275 HD
ATOM     58  HZ3 LYS     7      54.344  40.238  48.338  1.00 99.99     0.275 HD
ENDBRANCH  54  55
ENDBRANCH  53  54
ENDBRANCH  52  53
ENDBRANCH  51  52
ENDBRANCH  50  51
BRANCH  50  59
ATOM     59  C   LYS     7      57.329  43.803  47.555  1.00  0.00     0.206 C 
ATOM     60  O   LYS     7      58.470  43.903  47.055  1.00 99.99    -0.646 OA
ATOM     61  OXT LYS     7      56.673  44.728  48.089  1.00 99.99    -0.646 OA
ENDBRANCH  50  59
ENDBRANCH  48  50
ENDBRANCH  45  46
BRANCH  45  62
ATOM     62  CB  VAL     6      57.685  38.941  44.767  1.00  0.00     0.029 C 
ATOM     63  CG1 VAL     6      57.098  38.357  46.057  1.00  0.00     0.002 C 
ATOM     64  CG2 VAL     6      57.572  37.868  43.673  1.00  0.00     0.002 C 
ENDBRANCH  45  62
ENDBRANCH  43  45
ENDBRANCH  37  41
ENDBRANCH  35  37
ENDBRANCH  32  33
BRANCH  32  65
ATOM     65  CB  LYS     4      62.290  39.571  44.479  1.00  0.00     0.032 C 
BRANCH  65  66
ATOM     66  CG  LYS     4      62.368  39.289  45.980  1.00  0.00     0.004 C 
BRANCH  66  67
ATOM     67  CD  LYS     4      60.978  38.865  46.462  1.00  0.00     0.032 C 
BRANCH  67  68
ATOM     68  CE  LYS     4      60.241  39.998  47.177  1.00  0.00     0.206 C 
BRANCH  68  69
ATOM     69  NZ  LYS     4      61.116  41.168  47.340  1.00  0.00    -0.064 N 
ATOM     70  HZ1 LYS     4      60.568  41.965  47.598  1.00 99.99     0.275 HD
ATOM     71  HZ2 LYS     4      61.799  40.988  48.049  1.00 99.99     0.275 HD
ATOM     72  HZ3 LYS     4      61.582  41.357  46.474  1.00 99.99     0.275 HD
ENDBRANCH  68  69
ENDBRANCH  67  68
ENDBRANCH  66  67
ENDBRANCH  65  66
ENDBRANCH  32  65
ENDBRANCH  29  32
ENDBRANCH  27  28
BRANCH  27  73
ATOM     73  CB  ILE     3      66.617  41.249  46.706  1.00  0.00     0.029 C 
ATOM     74  CG2 ILE     3      67.846  41.869  47.401  1.00  0.00     0.002 C 
BRANCH  73  75
ATOM     75  CG1 ILE     3      65.796  40.425  47.715  1.00  0.00     0.002 C 
ATOM     76  CD  ILE     3      66.558  39.991  48.976  1.00  0.00     0.000 C 
ENDBRANCH  73  75
ENDBRANCH  27  73
ENDBRANCH  25  27
ENDBRANCH  18  23
ENDBRANCH  15  18
ENDBRANCH   5  14
ENDBRANCH   1   5
TORSDOF 35
ENDMDL
MODEL 7
REMARK VINA RESULT:      -4.2      2.376      6.652
REMARK WARNING: 32 MAX_TORS EXCEEDED!!!
REMARK  35 active torsions:
REMARK  status: ('A' for Active; 'I' for Inactive)
REMARK    1  A    between atoms: N_1  and  CA_2 
REMARK    2  A    between atoms: CA_2  and  CB_5 
REMARK    3  A    between atoms: CA_2  and  C_3 
REMARK       I    between atoms: C_3  and  N_16 
REMARK    4  A    between atoms: CB_5  and  CG_6 
REMARK    5  A    between atoms: CG_6  and  CD_7 
REMARK    6  A    between atoms: CD_7  and  CE_8 
REMARK    7  A    between atoms: CE_8  and  NZ_9 
REMARK    8  A    between atoms: N_16  and  CA_17 
REMARK    9  A    between atoms: CA_17  and  CB_20 
REMARK   10  A    between atoms: CA_17  and  C_18 
REMARK       I    between atoms: C_18  and  N_25 
REMARK   11  A    between atoms: CB_20  and  CG1_21 
REMARK   12  A    between atoms: N_25  and  CA_26 
REMARK   13  A    between atoms: CA_26  and  C_27 
REMARK   14  A    between atoms: CA_26  and  CB_29 
REMARK       I    between atoms: C_27  and  N_34 
REMARK   15  A    between atoms: CB_29  and  CG1_30 
REMARK   16  A    between atoms: N_34  and  CA_35 
REMARK   17  A    between atoms: CA_35  and  C_36 
REMARK   18  A    between atoms: CA_35  and  CB_38 
REMARK       I    between atoms: C_36  and  N_47 
REMARK   19  A    between atoms: CB_38  and  CG_39 
REMARK   20  A    between atoms: CG_39  and  CD_40 
REMARK   21  A    between atoms: CD_40  and  CE_41 
REMARK   22  A    between atoms: CE_41  and  NZ_42 
REMARK   23  A    between atoms: N_47  and  CA_48 
REMARK   24  A    between atoms: CA_48  and  CB_51 
REMARK   25  A    between atoms: CA_48  and  C_49 
REMARK       I    between atoms: C_49  and  N_55 
REMARK   26  A    between atoms: N_55  and  CA_56 
REMARK   27  A    between atoms: CA_56  and  C_57 
REMARK   28  A    between atoms: CA_56  and  CB_59 
REMARK       I    between atoms: C_57  and  N_63 
REMARK   29  A    between atoms: N_63  and  CA_64 
REMARK   30  A    between atoms: CA_64  and  CB_67 
REMARK   31  A    between atoms: CA_64  and  C_65 
REMARK   32  A    between atoms: CB_67  and  CG_68 
REMARK   33  A    between atoms: CG_68  and  CD_69 
REMARK   34  A    between atoms: CD_69  and  CE_70 
REMARK   35  A    between atoms: CE_70  and  NZ_71 
ROOT
ATOM      1  N   LYS     1      62.121  41.416  47.268  1.00  0.00    -0.058 N 
ATOM      2  H1  LYS     1      61.855  41.908  46.439  1.00 99.99     0.276 HD
ATOM      3  H2  LYS     1      63.070  41.166  47.208  1.00 99.99     0.276 HD
ATOM      4  H3  LYS     1      61.627  40.553  47.286  1.00 99.99     0.276 HD
ENDROOT
BRANCH   1   5
ATOM      5  CA  LYS     1      61.809  42.247  48.452  1.00  0.00     0.255 C 
BRANCH   5   6
ATOM      6  CB  LYS     1      63.066  42.834  49.138  1.00  0.00     0.040 C 
BRANCH   6   7
ATOM      7  CG  LYS     1      64.370  42.367  48.466  1.00  0.00     0.004 C 
BRANCH   7   8
ATOM      8  CD  LYS     1      65.429  43.473  48.324  1.00  0.00     0.032 C 
BRANCH   8   9
ATOM      9  CE  LYS     1      65.265  44.244  47.006  1.00  0.00     0.206 C 
BRANCH   9  10
ATOM     10  NZ  LYS     1      64.756  43.409  45.903  1.00  0.00    -0.064 N 
ATOM     11  HZ3 LYS     1      64.294  43.978  45.222  1.00 99.99     0.275 HD
ATOM     12  HZ2 LYS     1      64.115  42.727  46.257  1.00 99.99     0.275 HD
ATOM     13  HZ1 LYS     1      65.520  42.933  45.462  1.00 99.99     0.275 HD
ENDBRANCH   9  10
ENDBRANCH   8   9
ENDBRANCH   7   8
ENDBRANCH   6   7
ENDBRANCH   5   6
BRANCH   5  14
ATOM     14  C   LYS     1      60.751  43.299  48.048  1.00  0.00     0.259 C 
ATOM     15  N   ILE     2      59.556  42.853  47.630  1.00  0.00    -0.338 N 
ATOM     16  H   ILE     2      59.393  41.871  47.545  1.00 99.99     0.164 HD
ATOM     17  O   LYS     1      60.933  44.441  48.461  1.00  0.00    -0.271 OA
BRANCH  15  18
ATOM     18  CA  ILE     2      58.385  43.672  47.206  1.00  0.00     0.159 C 
BRANCH  18  19
ATOM     19  CB  ILE     2      58.056  43.460  45.707  1.00  0.00     0.029 C 
ATOM     20  CG2 ILE     2      59.199  43.965  44.804  1.00  0.00     0.002 C 
BRANCH  19  21
ATOM     21  CG1 ILE     2      57.805  41.964  45.436  1.00  0.00     0.002 C 
ATOM     22  CD  ILE     2      58.724  41.318  44.390  1.00  0.00     0.000 C 
ENDBRANCH  19  21
ENDBRANCH  18  19
BRANCH  18  23
ATOM     23  C   ILE     2      57.148  43.626  48.134  1.00  0.00     0.251 C 
ATOM     24  O   ILE     2      56.399  44.599  48.154  1.00  0.00    -0.271 OA
ATOM     25  N   ILE     3      56.967  42.537  48.896  1.00  0.00    -0.338 N 
ATOM     26  H   ILE     3      57.536  41.724  48.782  1.00 99.99     0.164 HD
BRANCH  25  27
ATOM     27  CA  ILE     3      55.884  42.377  49.902  1.00  0.00     0.159 C 
BRANCH  27  28
ATOM     28  C   ILE     3      56.411  42.451  51.356  1.00  0.00     0.251 C 
ATOM     29  N   LYS     4      57.214  41.458  51.747  1.00  0.00    -0.338 N 
ATOM     30  H   LYS     4      57.560  40.796  51.077  1.00 99.99     0.164 HD
ATOM     31  O   ILE     3      56.377  43.546  51.908  1.00  0.00    -0.271 OA
BRANCH  29  32
ATOM     32  CA  LYS     4      57.811  41.285  53.097  1.00  0.00     0.159 C 
BRANCH  32  33
ATOM     33  C   LYS     4      59.243  41.832  53.324  1.00  0.00     0.251 C 
ATOM     34  O   LYS     4      59.519  43.005  53.077  1.00  0.00    -0.271 OA
ATOM     35  N   VAL     5      60.085  41.021  53.955  1.00  0.00    -0.338 N 
ATOM     36  H   VAL     5      59.747  40.174  54.368  1.00 99.99     0.164 HD
BRANCH  35  37
ATOM     37  CA  VAL     5      61.512  41.302  54.237  1.00  0.00     0.159 C 
BRANCH  37  38
ATOM     38  CB  VAL     5      62.007  40.345  55.351  1.00  0.00     0.029 C 
ATOM     39  CG1 VAL     5      62.921  41.037  56.368  1.00  0.00     0.002 C 
ATOM     40  CG2 VAL     5      60.854  39.693  56.127  1.00  0.00     0.002 C 
ENDBRANCH  37  38
BRANCH  37  41
ATOM     41  C   VAL     5      62.367  41.187  52.947  1.00  0.00     0.251 C 
ATOM     42  O   VAL     5      62.895  42.176  52.446  1.00  0.00    -0.271 OA
ATOM     43  N   VAL     6      62.469  39.969  52.412  1.00  0.00    -0.338 N 
ATOM     44  H   VAL     6      61.980  39.195  52.816  1.00 99.99     0.164 HD
BRANCH  43  45
ATOM     45  CA  VAL     6      63.299  39.604  51.237  1.00  0.00     0.159 C 
BRANCH  45  46
ATOM     46  C   VAL     6      62.422  39.104  50.060  1.00  0.00     0.251 C 
ATOM     47  O   VAL     6      62.917  38.827  48.971  1.00  0.00    -0.271 OA
ATOM     48  N   LYS     7      61.140  38.891  50.352  1.00  0.00    -0.336 N 
ATOM     49  H   LYS     7      60.801  39.074  51.279  1.00 99.99     0.164 HD
BRANCH  48  50
ATOM     50  CA  LYS     7      60.082  38.415  49.432  1.00  0.00     0.168 C 
BRANCH  50  51
ATOM     51  CB  LYS     7      58.984  37.669  50.199  1.00  0.00     0.033 C 
BRANCH  51  52
ATOM     52  CG  LYS     7      57.571  37.774  49.627  1.00  0.00     0.004 C 
BRANCH  52  53
ATOM     53  CD  LYS     7      57.291  36.493  48.848  1.00  0.00     0.032 C 
BRANCH  53  54
ATOM     54  CE  LYS     7      56.852  36.774  47.414  1.00  0.00     0.206 C 
BRANCH  54  55
ATOM     55  NZ  LYS     7      58.035  37.111  46.612  1.00  0.00    -0.064 N 
ATOM     56  HZ1 LYS     7      58.597  37.773  47.106  1.00 99.99     0.275 HD
ATOM     57  HZ2 LYS     7      58.564  36.281  46.435  1.00 99.99     0.275 HD
ATOM     58  HZ3 LYS     7      57.737  37.506  45.743  1.00 99.99     0.275 HD
ENDBRANCH  54  55
ENDBRANCH  53  54
ENDBRANCH  52  53
ENDBRANCH  51  52
ENDBRANCH  50  51
BRANCH  50  59
ATOM     59  C   LYS     7      59.384  39.637  48.805  1.00  0.00     0.206 C 
ATOM     60  O   LYS     7      59.337  39.717  47.559  1.00 99.99    -0.646 OA
ATOM     61  OXT LYS     7      58.939  40.481  49.617  1.00 99.99    -0.646 OA
ENDBRANCH  50  59
ENDBRANCH  48  50
ENDBRANCH  45  46
BRANCH  45  62
ATOM     62  CB  VAL     6      64.330  38.531  51.671  1.00  0.00     0.029 C 
ATOM     63  CG1 VAL     6      65.371  39.066  52.661  1.00  0.00     0.002 C 
ATOM     64  CG2 VAL     6      63.665  37.302  52.307  1.00  0.00     0.002 C 
ENDBRANCH  45  62
ENDBRANCH  43  45
ENDBRANCH  37  41
ENDBRANCH  35  37
ENDBRANCH  32  33
BRANCH  32  65
ATOM     65  CB  LYS     4      57.825  39.791  53.447  1.00  0.00     0.032 C 
BRANCH  65  66
ATOM     66  CG  LYS     4      56.646  39.306  54.291  1.00  0.00     0.004 C 
BRANCH  66  67
ATOM     67  CD  LYS     4      55.744  38.442  53.406  1.00  0.00     0.032 C 
BRANCH  67  68
ATOM     68  CE  LYS     4      54.600  39.245  52.784  1.00  0.00     0.206 C 
BRANCH  68  69
ATOM     69  NZ  LYS     4      54.252  40.395  53.630  1.00  0.00    -0.064 N 
ATOM     70  HZ1 LYS     4      53.288  40.630  53.498  1.00 99.99     0.275 HD
ATOM     71  HZ2 LYS     4      54.414  40.175  54.592  1.00 99.99     0.275 HD
ATOM     72  HZ3 LYS     4      54.818  41.180  53.372  1.00 99.99     0.275 HD
ENDBRANCH  68  69
ENDBRANCH  67  68
ENDBRANCH  66  67
ENDBRANCH  65  66
ENDBRANCH  32  65
ENDBRANCH  29  32
ENDBRANCH  27  28
BRANCH  27  73
ATOM     73  CB  ILE     3      55.053  41.099  49.632  1.00  0.00     0.029 C 
ATOM     74  CG2 ILE     3      53.549  41.424  49.542  1.00  0.00     0.002 C 
BRANCH  73  75
ATOM     75  CG1 ILE     3      55.527  40.416  48.336  1.00  0.00     0.002 C 
ATOM     76  CD  ILE     3      54.406  39.977  47.382  1.00  0.00     0.000 C 
ENDBRANCH  73  75
ENDBRANCH  27  73
ENDBRANCH  25  27
ENDBRANCH  18  23
ENDBRANCH  15  18
ENDBRANCH   5  14
ENDBRANCH   1   5
TORSDOF 35
ENDMDL
MODEL 8
REMARK VINA RESULT:      -4.1      2.283      4.773
REMARK WARNING: 32 MAX_TORS EXCEEDED!!!
REMARK  35 active torsions:
REMARK  status: ('A' for Active; 'I' for Inactive)
REMARK    1  A    between atoms: N_1  and  CA_2 
REMARK    2  A    between atoms: CA_2  and  CB_5 
REMARK    3  A    between atoms: CA_2  and  C_3 
REMARK       I    between atoms: C_3  and  N_16 
REMARK    4  A    between atoms: CB_5  and  CG_6 
REMARK    5  A    between atoms: CG_6  and  CD_7 
REMARK    6  A    between atoms: CD_7  and  CE_8 
REMARK    7  A    between atoms: CE_8  and  NZ_9 
REMARK    8  A    between atoms: N_16  and  CA_17 
REMARK    9  A    between atoms: CA_17  and  CB_20 
REMARK   10  A    between atoms: CA_17  and  C_18 
REMARK       I    between atoms: C_18  and  N_25 
REMARK   11  A    between atoms: CB_20  and  CG1_21 
REMARK   12  A    between atoms: N_25  and  CA_26 
REMARK   13  A    between atoms: CA_26  and  C_27 
REMARK   14  A    between atoms: CA_26  and  CB_29 
REMARK       I    between atoms: C_27  and  N_34 
REMARK   15  A    between atoms: CB_29  and  CG1_30 
REMARK   16  A    between atoms: N_34  and  CA_35 
REMARK   17  A    between atoms: CA_35  and  C_36 
REMARK   18  A    between atoms: CA_35  and  CB_38 
REMARK       I    between atoms: C_36  and  N_47 
REMARK   19  A    between atoms: CB_38  and  CG_39 
REMARK   20  A    between atoms: CG_39  and  CD_40 
REMARK   21  A    between atoms: CD_40  and  CE_41 
REMARK   22  A    between atoms: CE_41  and  NZ_42 
REMARK   23  A    between atoms: N_47  and  CA_48 
REMARK   24  A    between atoms: CA_48  and  CB_51 
REMARK   25  A    between atoms: CA_48  and  C_49 
REMARK       I    between atoms: C_49  and  N_55 
REMARK   26  A    between atoms: N_55  and  CA_56 
REMARK   27  A    between atoms: CA_56  and  C_57 
REMARK   28  A    between atoms: CA_56  and  CB_59 
REMARK       I    between atoms: C_57  and  N_63 
REMARK   29  A    between atoms: N_63  and  CA_64 
REMARK   30  A    between atoms: CA_64  and  CB_67 
REMARK   31  A    between atoms: CA_64  and  C_65 
REMARK   32  A    between atoms: CB_67  and  CG_68 
REMARK   33  A    between atoms: CG_68  and  CD_69 
REMARK   34  A    between atoms: CD_69  and  CE_70 
REMARK   35  A    between atoms: CE_70  and  NZ_71 
ROOT
ATOM      1  N   LYS     1      59.948  42.970  46.505  1.00  0.00    -0.058 N 
ATOM      2  H1  LYS     1      60.821  43.314  46.159  1.00 99.99     0.276 HD
ATOM      3  H2  LYS     1      60.040  42.746  47.457  1.00 99.99     0.276 HD
ATOM      4  H3  LYS     1      59.757  42.106  46.053  1.00 99.99     0.276 HD
ENDROOT
BRANCH   1   5
ATOM      5  CA  LYS     1      58.889  43.970  46.239  1.00  0.00     0.255 C 
BRANCH   5   6
ATOM      6  CB  LYS     1      58.417  43.985  44.765  1.00  0.00     0.040 C 
BRANCH   6   7
ATOM      7  CG  LYS     1      58.993  42.810  43.954  1.00  0.00     0.004 C 
BRANCH   7   8
ATOM      8  CD  LYS     1      60.016  43.231  42.886  1.00  0.00     0.032 C 
BRANCH   8   9
ATOM      9  CE  LYS     1      59.800  42.470  41.568  1.00  0.00     0.206 C 
BRANCH   9  10
ATOM     10  NZ  LYS     1      58.378  42.220  41.268  1.00  0.00    -0.064 N 
ATOM     11  HZ3 LYS     1      58.289  41.456  40.629  1.00 99.99     0.275 HD
ATOM     12  HZ2 LYS     1      57.964  43.039  40.868  1.00 99.99     0.275 HD
ATOM     13  HZ1 LYS     1      57.891  41.993  42.113  1.00 99.99     0.275 HD
ENDBRANCH   9  10
ENDBRANCH   8   9
ENDBRANCH   7   8
ENDBRANCH   6   7
ENDBRANCH   5   6
BRANCH   5  14
ATOM     14  C   LYS     1      57.756  43.772  47.271  1.00  0.00     0.259 C 
ATOM     15  N   ILE     2      57.526  42.526  47.714  1.00  0.00    -0.338 N 
ATOM     16  H   ILE     2      58.050  41.761  47.341  1.00 99.99     0.164 HD
ATOM     17  O   LYS     1      57.386  44.776  47.874  1.00  0.00    -0.271 OA
BRANCH  15  18
ATOM     18  CA  ILE     2      56.506  42.097  48.712  1.00  0.00     0.159 C 
BRANCH  18  19
ATOM     19  CB  ILE     2      55.941  40.694  48.379  1.00  0.00     0.029 C 
ATOM     20  CG2 ILE     2      54.574  40.464  49.056  1.00  0.00     0.002 C 
BRANCH  19  21
ATOM     21  CG1 ILE     2      55.794  40.540  46.853  1.00  0.00     0.002 C 
ATOM     22  CD  ILE     2      54.660  39.615  46.387  1.00  0.00     0.000 C 
ENDBRANCH  19  21
ENDBRANCH  18  19
BRANCH  18  23
ATOM     23  C   ILE     2      56.885  42.286  50.200  1.00  0.00     0.251 C 
ATOM     24  O   ILE     2      56.386  43.226  50.812  1.00  0.00    -0.271 OA
ATOM     25  N   ILE     3      57.763  41.431  50.744  1.00  0.00    -0.338 N 
ATOM     26  H   ILE     3      58.072  40.620  50.250  1.00 99.99     0.164 HD
BRANCH  25  27
ATOM     27  CA  ILE     3      58.297  41.531  52.128  1.00  0.00     0.159 C 
BRANCH  27  28
ATOM     28  C   ILE     3      59.578  42.397  52.207  1.00  0.00     0.251 C 
ATOM     29  N   LYS     4      60.317  42.466  51.096  1.00  0.00    -0.338 N 
ATOM     30  H   LYS     4      59.966  42.094  50.234  1.00 99.99     0.164 HD
ATOM     31  O   ILE     3      59.635  43.229  53.107  1.00  0.00    -0.271 OA
BRANCH  29  32
ATOM     32  CA  LYS     4      61.601  43.196  50.935  1.00  0.00     0.159 C 
BRANCH  32  33
ATOM     33  C   LYS     4      61.939  43.754  49.529  1.00  0.00     0.251 C 
ATOM     34  O   LYS     4      61.087  44.334  48.857  1.00  0.00    -0.271 OA
ATOM     35  N   VAL     5      63.221  43.726  49.181  1.00  0.00    -0.338 N 
ATOM     36  H   VAL     5      63.916  43.483  49.859  1.00 99.99     0.164 HD
BRANCH  35  37
ATOM     37  CA  VAL     5      63.774  44.154  47.875  1.00  0.00     0.159 C 
BRANCH  37  38
ATOM     38  CB  VAL     5      65.241  44.614  48.072  1.00  0.00     0.029 C 
ATOM     39  CG1 VAL     5      66.036  43.687  48.998  1.00  0.00     0.002 C 
ATOM     40  CG2 VAL     5      66.010  44.722  46.747  1.00  0.00     0.002 C 
ENDBRANCH  37  38
BRANCH  37  41
ATOM     41  C   VAL     5      63.655  43.019  46.823  1.00  0.00     0.251 C 
ATOM     42  O   VAL     5      63.163  43.230  45.718  1.00  0.00    -0.271 OA
ATOM     43  N   VAL     6      64.090  41.816  47.199  1.00  0.00    -0.338 N 
ATOM     44  H   VAL     6      64.434  41.669  48.127  1.00 99.99     0.164 HD
BRANCH  43  45
ATOM     45  CA  VAL     6      64.157  40.609  46.337  1.00  0.00     0.159 C 
BRANCH  45  46
ATOM     46  C   VAL     6      62.789  39.881  46.279  1.00  0.00     0.251 C 
ATOM     47  O   VAL     6      62.300  39.532  45.209  1.00  0.00    -0.271 OA
ATOM     48  N   LYS     7      62.259  39.566  47.459  1.00  0.00    -0.336 N 
ATOM     49  H   LYS     7      62.735  39.820  48.306  1.00 99.99     0.164 HD
BRANCH  48  50
ATOM     50  CA  LYS     7      60.973  38.873  47.704  1.00  0.00     0.168 C 
BRANCH  50  51
ATOM     51  CB  LYS     7      60.944  38.253  49.106  1.00  0.00     0.033 C 
BRANCH  51  52
ATOM     52  CG  LYS     7      61.331  36.778  49.200  1.00  0.00     0.004 C 
BRANCH  52  53
ATOM     53  CD  LYS     7      60.347  36.101  50.150  1.00  0.00     0.032 C 
BRANCH  53  54
ATOM     54  CE  LYS     7      59.289  35.292  49.404  1.00  0.00     0.206 C 
BRANCH  54  55
ATOM     55  NZ  LYS     7      58.022  36.036  49.423  1.00  0.00    -0.064 N 
ATOM     56  HZ1 LYS     7      57.990  36.622  50.231  1.00 99.99     0.275 HD
ATOM     57  HZ2 LYS     7      57.951  36.593  48.595  1.00 99.99     0.275 HD
ATOM     58  HZ3 LYS     7      57.265  35.384  49.450  1.00 99.99     0.275 HD
ENDBRANCH  54  55
ENDBRANCH  53  54
ENDBRANCH  52  53
ENDBRANCH  51  52
ENDBRANCH  50  51
BRANCH  50  59
ATOM     59  C   LYS     7      59.838  39.914  47.693  1.00  0.00     0.206 C 
ATOM     60  O   LYS     7      59.122  39.998  46.672  1.00 99.99    -0.646 OA
ATOM     61  OXT LYS     7      59.746  40.624  48.722  1.00 99.99    -0.646 OA
ENDBRANCH  50  59
ENDBRANCH  48  50
ENDBRANCH  45  46
BRANCH  45  62
ATOM     62  CB  VAL     6      65.273  39.677  46.874  1.00  0.00     0.029 C 
ATOM     63  CG1 VAL     6      65.748  38.653  45.837  1.00  0.00     0.002 C 
ATOM     64  CG2 VAL     6      66.503  40.454  47.364  1.00  0.00     0.002 C 
ENDBRANCH  45  62
ENDBRANCH  43  45
ENDBRANCH  37  41
ENDBRANCH  35  37
ENDBRANCH  32  33
BRANCH  32  65
ATOM     65  CB  LYS     4      62.754  42.273  51.355  1.00  0.00     0.032 C 
BRANCH  65  66
ATOM     66  CG  LYS     4      62.649  40.830  50.862  1.00  0.00     0.004 C 
BRANCH  66  67
ATOM     67  CD  LYS     4      64.043  40.366  50.431  1.00  0.00     0.032 C 
BRANCH  67  68
ATOM     68  CE  LYS     4      64.371  38.963  50.943  1.00  0.00     0.206 C 
BRANCH  68  69
ATOM     69  NZ  LYS     4      65.748  38.588  50.589  1.00  0.00    -0.064 N 
ATOM     70  HZ1 LYS     4      65.955  38.908  49.663  1.00 99.99     0.275 HD
ATOM     71  HZ2 LYS     4      66.392  38.997  51.236  1.00 99.99     0.275 HD
ATOM     72  HZ3 LYS     4      65.838  37.592  50.618  1.00 99.99     0.275 HD
ENDBRANCH  68  69
ENDBRANCH  67  68
ENDBRANCH  66  67
ENDBRANCH  65  66
ENDBRANCH  32  65
ENDBRANCH  29  32
ENDBRANCH  27  28
BRANCH  27  73
ATOM     73  CB  ILE     3      58.484  40.130  52.759  1.00  0.00     0.029 C 
ATOM     74  CG2 ILE     3      58.192  39.017  51.734  1.00  0.00     0.002 C 
BRANCH  73  75
ATOM     75  CG1 ILE     3      59.913  39.979  53.314  1.00  0.00     0.002 C 
ATOM     76  CD  ILE     3      60.629  38.676  52.927  1.00  0.00     0.000 C 
ENDBRANCH  73  75
ENDBRANCH  27  73
ENDBRANCH  25  27
ENDBRANCH  18  23
ENDBRANCH  15  18
ENDBRANCH   5  14
ENDBRANCH   1   5
TORSDOF 35
ENDMDL
MODEL 9
REMARK VINA RESULT:      -4.1      2.291      5.122
REMARK WARNING: 32 MAX_TORS EXCEEDED!!!
REMARK  35 active torsions:
REMARK  status: ('A' for Active; 'I' for Inactive)
REMARK    1  A    between atoms: N_1  and  CA_2 
REMARK    2  A    between atoms: CA_2  and  CB_5 
REMARK    3  A    between atoms: CA_2  and  C_3 
REMARK       I    between atoms: C_3  and  N_16 
REMARK    4  A    between atoms: CB_5  and  CG_6 
REMARK    5  A    between atoms: CG_6  and  CD_7 
REMARK    6  A    between atoms: CD_7  and  CE_8 
REMARK    7  A    between atoms: CE_8  and  NZ_9 
REMARK    8  A    between atoms: N_16  and  CA_17 
REMARK    9  A    between atoms: CA_17  and  CB_20 
REMARK   10  A    between atoms: CA_17  and  C_18 
REMARK       I    between atoms: C_18  and  N_25 
REMARK   11  A    between atoms: CB_20  and  CG1_21 
REMARK   12  A    between atoms: N_25  and  CA_26 
REMARK   13  A    between atoms: CA_26  and  C_27 
REMARK   14  A    between atoms: CA_26  and  CB_29 
REMARK       I    between atoms: C_27  and  N_34 
REMARK   15  A    between atoms: CB_29  and  CG1_30 
REMARK   16  A    between atoms: N_34  and  CA_35 
REMARK   17  A    between atoms: CA_35  and  C_36 
REMARK   18  A    between atoms: CA_35  and  CB_38 
REMARK       I    between atoms: C_36  and  N_47 
REMARK   19  A    between atoms: CB_38  and  CG_39 
REMARK   20  A    between atoms: CG_39  and  CD_40 
REMARK   21  A    between atoms: CD_40  and  CE_41 
REMARK   22  A    between atoms: CE_41  and  NZ_42 
REMARK   23  A    between atoms: N_47  and  CA_48 
REMARK   24  A    between atoms: CA_48  and  CB_51 
REMARK   25  A    between atoms: CA_48  and  C_49 
REMARK       I    between atoms: C_49  and  N_55 
REMARK   26  A    between atoms: N_55  and  CA_56 
REMARK   27  A    between atoms: CA_56  and  C_57 
REMARK   28  A    between atoms: CA_56  and  CB_59 
REMARK       I    between atoms: C_57  and  N_63 
REMARK   29  A    between atoms: N_63  and  CA_64 
REMARK   30  A    between atoms: CA_64  and  CB_67 
REMARK   31  A    between atoms: CA_64  and  C_65 
REMARK   32  A    between atoms: CB_67  and  CG_68 
REMARK   33  A    between atoms: CG_68  and  CD_69 
REMARK   34  A    between atoms: CD_69  and  CE_70 
REMARK   35  A    between atoms: CE_70  and  NZ_71 
ROOT
ATOM      1  N   LYS     1      59.190  43.387  46.915  1.00  0.00    -0.058 N 
ATOM      2  H1  LYS     1      59.864  42.779  46.495  1.00 99.99     0.276 HD
ATOM      3  H2  LYS     1      59.325  44.302  46.583  1.00 99.99     0.276 HD
ATOM      4  H3  LYS     1      59.383  43.434  47.889  1.00 99.99     0.276 HD
ENDROOT
BRANCH   1   5
ATOM      5  CA  LYS     1      57.830  42.863  46.653  1.00  0.00     0.255 C 
BRANCH   5   6
ATOM      6  CB  LYS     1      57.817  41.373  46.237  1.00  0.00     0.040 C 
BRANCH   6   7
ATOM      7  CG  LYS     1      56.522  40.983  45.501  1.00  0.00     0.004 C 
BRANCH   7   8
ATOM      8  CD  LYS     1      56.445  39.495  45.118  1.00  0.00     0.032 C 
BRANCH   8   9
ATOM      9  CE  LYS     1      55.116  39.160  44.423  1.00  0.00     0.206 C 
BRANCH   9  10
ATOM     10  NZ  LYS     1      54.368  38.079  45.089  1.00  0.00    -0.064 N 
ATOM     11  HZ3 LYS     1      54.771  37.879  45.983  1.00 99.99     0.275 HD
ATOM     12  HZ2 LYS     1      54.385  37.253  44.524  1.00 99.99     0.275 HD
ATOM     13  HZ1 LYS     1      53.416  38.360  45.219  1.00 99.99     0.275 HD
ENDBRANCH   9  10
ENDBRANCH   8   9
ENDBRANCH   7   8
ENDBRANCH   6   7
ENDBRANCH   5   6
BRANCH   5  14
ATOM     14  C   LYS     1      56.934  43.196  47.867  1.00  0.00     0.259 C 
ATOM     15  N   ILE     2      56.898  42.313  48.877  1.00  0.00    -0.338 N 
ATOM     16  H   ILE     2      57.404  41.454  48.806  1.00 99.99     0.164 HD
ATOM     17  O   LYS     1      56.601  44.372  47.993  1.00  0.00    -0.271 OA
BRANCH  15  18
ATOM     18  CA  ILE     2      56.124  42.424  50.146  1.00  0.00     0.159 C 
BRANCH  18  19
ATOM     19  CB  ILE     2      55.089  41.280  50.283  1.00  0.00     0.029 C 
ATOM     20  CG2 ILE     2      53.721  41.688  49.701  1.00  0.00     0.002 C 
BRANCH  19  21
ATOM     21  CG1 ILE     2      55.605  40.022  49.558  1.00  0.00     0.002 C 
ATOM     22  CD  ILE     2      54.675  39.455  48.475  1.00  0.00     0.000 C 
ENDBRANCH  19  21
ENDBRANCH  18  19
BRANCH  18  23
ATOM     23  C   ILE     2      56.951  42.681  51.429  1.00  0.00     0.251 C 
ATOM     24  O   ILE     2      56.558  43.543  52.210  1.00  0.00    -0.271 OA
ATOM     25  N   ILE     3      58.074  41.971  51.613  1.00  0.00    -0.338 N 
ATOM     26  H   ILE     3      58.310  41.210  51.012  1.00 99.99     0.164 HD
BRANCH  25  27
ATOM     27  CA  ILE     3      59.022  42.162  52.742  1.00  0.00     0.159 C 
BRANCH  27  28
ATOM     28  C   ILE     3      60.446  42.534  52.262  1.00  0.00     0.251 C 
ATOM     29  N   LYS     4      60.867  41.942  51.141  1.00  0.00    -0.338 N 
ATOM     30  H   LYS     4      60.228  41.410  50.581  1.00 99.99     0.164 HD
ATOM     31  O   ILE     3      60.928  43.574  52.697  1.00  0.00    -0.271 OA
BRANCH  29  32
ATOM     32  CA  LYS     4      62.201  42.104  50.505  1.00  0.00     0.159 C 
BRANCH  32  33
ATOM     33  C   LYS     4      62.344  43.183  49.402  1.00  0.00     0.251 C 
ATOM     34  O   LYS     4      61.426  43.963  49.156  1.00  0.00    -0.271 OA
ATOM     35  N   VAL     5      63.556  43.323  48.876  1.00  0.00    -0.338 N 
ATOM     36  H   VAL     5      64.336  42.846  49.284  1.00 99.99     0.164 HD
BRANCH  35  37
ATOM     37  CA  VAL     5      63.923  44.247  47.777  1.00  0.00     0.159 C 
BRANCH  37  38
ATOM     38  CB  VAL     5      65.133  45.108  48.220  1.00  0.00     0.029 C 
ATOM     39  CG1 VAL     5      64.732  46.272  49.132  1.00  0.00     0.002 C 
ATOM     40  CG2 VAL     5      66.205  44.289  48.953  1.00  0.00     0.002 C 
ENDBRANCH  37  38
BRANCH  37  41
ATOM     41  C   VAL     5      64.212  43.466  46.467  1.00  0.00     0.251 C 
ATOM     42  O   VAL     5      65.156  43.771  45.743  1.00  0.00    -0.271 OA
ATOM     43  N   VAL     6      63.369  42.476  46.170  1.00  0.00    -0.338 N 
ATOM     44  H   VAL     6      62.579  42.290  46.756  1.00 99.99     0.164 HD
BRANCH  43  45
ATOM     45  CA  VAL     6      63.497  41.542  45.024  1.00  0.00     0.159 C 
BRANCH  45  46
ATOM     46  C   VAL     6      62.750  42.078  43.775  1.00  0.00     0.251 C 
ATOM     47  O   VAL     6      63.320  42.784  42.948  1.00  0.00    -0.271 OA
ATOM     48  N   LYS     7      61.508  41.625  43.613  1.00  0.00    -0.336 N 
ATOM     49  H   LYS     7      61.112  40.996  44.289  1.00 99.99     0.164 HD
BRANCH  48  50
ATOM     50  CA  LYS     7      60.570  41.963  42.518  1.00  0.00     0.168 C 
BRANCH  50  51
ATOM     51  CB  LYS     7      59.303  41.104  42.599  1.00  0.00     0.033 C 
BRANCH  51  52
ATOM     52  CG  LYS     7      59.193  39.967  41.583  1.00  0.00     0.004 C 
BRANCH  52  53
ATOM     53  CD  LYS     7      58.447  38.817  42.253  1.00  0.00     0.032 C 
BRANCH  53  54
ATOM     54  CE  LYS     7      57.288  38.308  41.402  1.00  0.00     0.206 C 
BRANCH  54  55
ATOM     55  NZ  LYS     7      56.461  39.450  40.993  1.00  0.00    -0.064 N 
ATOM     56  HZ1 LYS     7      57.020  40.104  40.485  1.00 99.99     0.275 HD
ATOM     57  HZ2 LYS     7      55.709  39.128  40.419  1.00 99.99     0.275 HD
ATOM     58  HZ3 LYS     7      56.089  39.891  41.810  1.00 99.99     0.275 HD
ENDBRANCH  54  55
ENDBRANCH  53  54
ENDBRANCH  52  53
ENDBRANCH  51  52
ENDBRANCH  50  51
BRANCH  50  59
ATOM     59  C   LYS     7      60.091  43.415  42.706  1.00  0.00     0.206 C 
ATOM     60  O   LYS     7      59.685  43.763  43.836  1.00 99.99    -0.646 OA
ATOM     61  OXT LYS     7      60.123  44.133  41.679  1.00 99.99    -0.646 OA
ENDBRANCH  50  59
ENDBRANCH  48  50
ENDBRANCH  45  46
BRANCH  45  62
ATOM     62  CB  VAL     6      62.959  40.153  45.452  1.00  0.00     0.029 C 
ATOM     63  CG1 VAL     6      64.067  39.194  45.904  1.00  0.00     0.002 C 
ATOM     64  CG2 VAL     6      61.928  40.245  46.587  1.00  0.00     0.002 C 
ENDBRANCH  45  62
ENDBRANCH  43  45
ENDBRANCH  37  41
ENDBRANCH  35  37
ENDBRANCH  32  33
BRANCH  32  65
ATOM     65  CB  LYS     4      62.629  40.761  49.899  1.00  0.00     0.032 C 
BRANCH  65  66
ATOM     66  CG  LYS     4      63.832  40.095  50.568  1.00  0.00     0.004 C 
BRANCH  66  67
ATOM     67  CD  LYS     4      64.934  39.926  49.518  1.00  0.00     0.032 C 
BRANCH  67  68
ATOM     68  CE  LYS     4      65.853  38.744  49.828  1.00  0.00     0.206 C 
BRANCH  68  69
ATOM     69  NZ  LYS     4      66.805  39.089  50.894  1.00  0.00    -0.064 N 
ATOM     70  HZ1 LYS     4      67.675  39.373  50.488  1.00 99.99     0.275 HD
ATOM     71  HZ2 LYS     4      66.438  39.835  51.451  1.00 99.99     0.275 HD
ATOM     72  HZ3 LYS     4      66.959  38.288  51.473  1.00 99.99     0.275 HD
ENDBRANCH  68  69
ENDBRANCH  67  68
ENDBRANCH  66  67
ENDBRANCH  65  66
ENDBRANCH  32  65
ENDBRANCH  29  32
ENDBRANCH  27  28
BRANCH  27  73
ATOM     73  CB  ILE     3      59.012  40.942  53.695  1.00  0.00     0.029 C 
ATOM     74  CG2 ILE     3      58.430  39.698  52.995  1.00  0.00     0.002 C 
BRANCH  73  75
ATOM     75  CG1 ILE     3      60.436  40.647  54.202  1.00  0.00     0.002 C 
ATOM     76  CD  ILE     3      60.568  39.401  55.090  1.00  0.00     0.000 C 
ENDBRANCH  73  75
ENDBRANCH  27  73
ENDBRANCH  25  27
ENDBRANCH  18  23
ENDBRANCH  15  18
ENDBRANCH   5  14
ENDBRANCH   1   5
TORSDOF 35
ENDMDL
