MODEL 1
REMARK VINA RESULT:      -5.1      0.000      0.000
REMARK  32 active torsions:
REMARK  status: ('A' for Active; 'I' for Inactive)
REMARK    1  A    between atoms: N_1  and  CA_2 
REMARK    2  A    between atoms: CA_2  and  C_3 
REMARK    3  A    between atoms: CA_2  and  CB_5 
REMARK       I    between atoms: C_3  and  N_15 
REMARK    4  A    between atoms: CB_5  and  CG_6 
REMARK    5  A    between atoms: N_15  and  CA_16 
REMARK    6  A    between atoms: CA_16  and  C_17 
REMARK    7  A    between atoms: CA_16  and  CB_19 
REMARK       I    between atoms: C_17  and  N_32 
REMARK    8  A    between atoms: CB_19  and  CG_20 
REMARK    9  A    between atoms: CG_20  and  CD_21 
REMARK   10  A    between atoms: CD_21  and  NE_22 
REMARK       I    between atoms: NE_22  and  CZ_23 
REMARK       I    between atoms: CZ_23  and  NH2_25 
REMARK       I    between atoms: CZ_23  and  NH1_24 
REMARK   11  A    between atoms: N_32  and  CA_33 
REMARK   12  A    between atoms: CA_33  and  C_34 
REMARK   13  A    between atoms: CA_33  and  CB_36 
REMARK       I    between atoms: C_34  and  N_41 
REMARK   14  A    between atoms: CB_36  and  CG1_37 
REMARK   15  A    between atoms: N_41  and  CA_42 
REMARK   16  A    between atoms: CA_42  and  C_43 
REMARK   17  A    between atoms: CA_42  and  CB_45 
REMARK       I    between atoms: C_43  and  N_58 
REMARK   18  A    between atoms: CB_45  and  CG_46 
REMARK   19  A    between atoms: CG_46  and  CD_47 
REMARK   20  A    between atoms: CD_47  and  NE_48 
REMARK       I    between atoms: NE_48  and  CZ_49 
REMARK       I    between atoms: CZ_49  and  NH1_50 
REMARK       I    between atoms: CZ_49  and  NH2_51 
REMARK   21  A    between atoms: N_58  and  CA_59 
REMARK   22  A    between atoms: CA_59  and  C_60 
REMARK   23  A    between atoms: CA_59  and  CB_62 
REMARK       I    between atoms: C_60  and  N_66 
REMARK   24  A    between atoms: N_66  and  CA_67 
REMARK   25  A    between atoms: CA_67  and  CB_70 
REMARK   26  A    between atoms: CA_67  and  C_68 
REMARK       I    between atoms: C_68  and  N_83 
REMARK   27  A    between atoms: CB_70  and  CG_71 
REMARK   28  A    between atoms: CG_71  and  CD_72 
REMARK   29  A    between atoms: CD_72  and  NE_73 
REMARK       I    between atoms: NE_73  and  CZ_74 
REMARK       I    between atoms: CZ_74  and  NH1_75 
REMARK   30  A    between atoms: N_83  and  CA_84 
REMARK   31  A    between atoms: CA_84  and  CB_87 
REMARK   32  A    between atoms: CA_84  and  C_85 
ROOT
ATOM      1  N   PHE     1      58.048  41.064  54.651  1.00  0.00    -0.057 N 
ATOM      2  H1  PHE     1      58.622  40.328  55.015  1.00 99.99     0.276 HD
ATOM      3  H2  PHE     1      58.023  41.809  55.301  1.00 99.99     0.276 HD
ATOM      4  H3  PHE     1      57.111  40.739  54.602  1.00 99.99     0.276 HD
ENDROOT
BRANCH   1   5
ATOM      5  CA  PHE     1      58.593  41.458  53.325  1.00  0.00     0.259 C 
BRANCH   5   6
ATOM      6  C   PHE     1      60.112  41.786  53.400  1.00  0.00     0.259 C 
ATOM      7  O   PHE     1      60.552  42.730  52.750  1.00  0.00    -0.271 OA
ATOM      8  N   ARG     2      60.905  41.029  54.172  1.00  0.00    -0.338 N 
ATOM      9  H   ARG     2      60.534  40.362  54.815  1.00 99.99     0.164 HD
BRANCH   8  10
ATOM     10  CA  ARG     2      62.381  41.181  54.226  1.00  0.00     0.159 C 
BRANCH  10  11
ATOM     11  C   ARG     2      63.128  40.485  53.067  1.00  0.00     0.251 C 
ATOM     12  O   ARG     2      64.047  39.701  53.294  1.00  0.00    -0.271 OA
ATOM     13  N   ILE     3      62.623  40.679  51.848  1.00  0.00    -0.338 N 
ATOM     14  H   ILE     3      61.762  41.167  51.723  1.00 99.99     0.164 HD
BRANCH  13  15
ATOM     15  CA  ILE     3      63.230  40.187  50.593  1.00  0.00     0.159 C 
BRANCH  15  16
ATOM     16  C   ILE     3      63.700  41.384  49.738  1.00  0.00     0.251 C 
ATOM     17  N   ARG     4      64.146  41.061  48.524  1.00  0.00    -0.338 N 
ATOM     18  H   ARG     4      64.217  40.107  48.247  1.00 99.99     0.164 HD
ATOM     19  O   ILE     3      63.585  42.536  50.152  1.00  0.00    -0.271 OA
BRANCH  17  20
ATOM     20  CA  ARG     4      64.710  42.028  47.552  1.00  0.00     0.159 C 
BRANCH  20  21
ATOM     21  C   ARG     4      64.564  41.682  46.058  1.00  0.00     0.251 C 
ATOM     22  O   ARG     4      65.486  41.920  45.280  1.00  0.00    -0.271 OA
ATOM     23  N   VAL     5      63.495  40.969  45.710  1.00  0.00    -0.338 N 
ATOM     24  H   VAL     5      62.813  40.678  46.374  1.00 99.99     0.164 HD
BRANCH  23  25
ATOM     25  CA  VAL     5      63.207  40.583  44.308  1.00  0.00     0.159 C 
BRANCH  25  26
ATOM     26  C   VAL     5      62.201  41.532  43.631  1.00  0.00     0.251 C 
ATOM     27  N   ARG     6      60.995  41.567  44.189  1.00  0.00    -0.338 N 
ATOM     28  H   ARG     6      60.771  41.048  45.011  1.00 99.99     0.164 HD
ATOM     29  O   VAL     5      62.539  42.255  42.693  1.00  0.00    -0.271 OA
BRANCH  27  30
ATOM     30  CA  ARG     6      59.899  42.410  43.676  1.00  0.00     0.159 C 
BRANCH  30  31
ATOM     31  CB  ARG     6      58.692  41.571  43.266  1.00  0.00     0.034 C 
BRANCH  31  32
ATOM     32  CG  ARG     6      58.574  40.261  44.045  1.00  0.00     0.027 C 
BRANCH  32  33
ATOM     33  CD  ARG     6      57.152  40.149  44.587  1.00  0.00     0.116 C 
BRANCH  33  34
ATOM     34  NE  ARG     6      56.270  39.553  43.572  1.00  0.00    -0.212 N 
ATOM     35  CZ  ARG     6      55.142  38.882  43.816  1.00  0.00     0.666 C 
ATOM     36  NH1 ARG     6      54.694  38.690  45.050  1.00  0.00    -0.235 N 
ATOM     37  NH2 ARG     6      54.445  38.363  42.815  1.00  0.00    -0.235 N 
ATOM     38 2HH1 ARG     6      55.221  39.052  45.815  1.00 99.99     0.174 HD
ATOM     39 1HH1 ARG     6      53.846  38.186  45.210  1.00 99.99     0.174 HD
ATOM     40 1HH2 ARG     6      53.604  37.865  43.013  1.00 99.99     0.174 HD
ATOM     41 2HH2 ARG     6      54.760  38.460  41.875  1.00 99.99     0.174 HD
ATOM     42  HE  ARG     6      56.567  39.672  42.626  1.00 99.99     0.178 HD
ENDBRANCH  33  34
ENDBRANCH  32  33
ENDBRANCH  31  32
ENDBRANCH  30  31
BRANCH  30  43
ATOM     43  C   ARG     6      59.442  43.427  44.725  1.00  0.00     0.251 C 
ATOM     44  N   VAL     7      59.654  42.996  45.958  1.00  0.00    -0.336 N 
ATOM     45  H   VAL     7      59.991  42.065  46.105  1.00 99.99     0.164 HD
ATOM     46  O   ARG     6      58.757  44.403  44.419  1.00  0.00    -0.271 OA
BRANCH  44  47
ATOM     47  CA  VAL     7      59.485  43.772  47.208  1.00  0.00     0.168 C 
BRANCH  47  48
ATOM     48  CB  VAL     7      58.250  43.320  48.026  1.00  0.00     0.031 C 
ATOM     49  CG1 VAL     7      57.004  44.127  47.649  1.00  0.00     0.003 C 
ATOM     50  CG2 VAL     7      57.929  41.822  47.909  1.00  0.00     0.003 C 
ENDBRANCH  47  48
BRANCH  47  51
ATOM     51  C   VAL     7      60.765  43.622  48.054  1.00  0.00     0.206 C 
ATOM     52  O   VAL     7      61.111  44.575  48.783  1.00 99.99    -0.646 OA
ATOM     53  OXT VAL     7      61.452  42.611  47.780  1.00 99.99    -0.646 OA
ENDBRANCH  47  51
ENDBRANCH  44  47
ENDBRANCH  30  43
ENDBRANCH  27  30
ENDBRANCH  25  26
BRANCH  25  54
ATOM     54  CB  VAL     5      62.781  39.105  44.166  1.00  0.00     0.029 C 
ATOM     55  CG2 VAL     5      62.274  38.473  45.468  1.00  0.00     0.002 C 
ATOM     56  CG1 VAL     5      63.912  38.263  43.566  1.00  0.00     0.002 C 
ENDBRANCH  25  54
ENDBRANCH  23  25
ENDBRANCH  20  21
BRANCH  20  57
ATOM     57  CB  ARG     4      66.188  42.281  47.867  1.00  0.00     0.034 C 
BRANCH  57  58
ATOM     58  CG  ARG     4      66.420  43.658  48.494  1.00  0.00     0.027 C 
BRANCH  58  59
ATOM     59  CD  ARG     4      65.485  44.691  47.867  1.00  0.00     0.116 C 
BRANCH  59  60
ATOM     60  NE  ARG     4      64.409  45.023  48.821  1.00  0.00    -0.212 N 
ATOM     61  CZ  ARG     4      64.211  46.204  49.412  1.00  0.00     0.666 C 
ATOM     62  NH1 ARG     4      65.008  47.245  49.198  1.00  0.00    -0.235 N 
ATOM     63  NH2 ARG     4      63.199  46.364  50.252  1.00  0.00    -0.235 N 
ATOM     64 1HH1 ARG     4      64.833  48.115  49.653  1.00 99.99     0.174 HD
ATOM     65 2HH1 ARG     4      65.779  47.140  48.577  1.00 99.99     0.174 HD
ATOM     66 2HH2 ARG     4      62.579  45.608  50.451  1.00 99.99     0.174 HD
ATOM     67 1HH2 ARG     4      63.058  47.252  50.688  1.00 99.99     0.174 HD
ATOM     68  HE  ARG     4      63.776  44.279  49.018  1.00 99.99     0.178 HD
ENDBRANCH  59  60
ENDBRANCH  58  59
ENDBRANCH  57  58
ENDBRANCH  20  57
ENDBRANCH  17  20
ENDBRANCH  15  16
BRANCH  15  69
ATOM     69  CB  ILE     3      62.198  39.306  49.847  1.00  0.00     0.029 C 
ATOM     70  CG2 ILE     3      62.183  37.880  50.415  1.00  0.00     0.002 C 
BRANCH  69  71
ATOM     71  CG1 ILE     3      60.787  39.919  49.931  1.00  0.00     0.002 C 
ATOM     72  CD  ILE     3      59.726  38.998  50.549  1.00  0.00     0.000 C 
ENDBRANCH  69  71
ENDBRANCH  15  69
ENDBRANCH  13  15
ENDBRANCH  10  11
BRANCH  10  73
ATOM     73  CB  ARG     2      62.934  40.659  55.558  1.00  0.00     0.034 C 
BRANCH  73  74
ATOM     74  CG  ARG     2      63.625  41.732  56.408  1.00  0.00     0.027 C 
BRANCH  74  75
ATOM     75  CD  ARG     2      65.054  41.294  56.737  1.00  0.00     0.116 C 
BRANCH  75  76
ATOM     76  NE  ARG     2      65.889  41.268  55.520  1.00  0.00    -0.212 N 
ATOM     77  HE  ARG     2      66.011  42.149  55.068  1.00 99.99     0.178 HD
ATOM     78  CZ  ARG     2      66.452  40.189  54.967  1.00  0.00     0.666 C 
ATOM     79  NH2 ARG     2      67.202  40.309  53.880  1.00  0.00    -0.235 N 
ATOM     80  NH1 ARG     2      66.307  38.973  55.482  1.00  0.00    -0.235 N 
ATOM     81 1HH2 ARG     2      67.618  39.493  53.479  1.00 99.99     0.174 HD
ATOM     82 2HH2 ARG     2      67.355  41.200  53.459  1.00 99.99     0.174 HD
ATOM     83 1HH1 ARG     2      66.741  38.185  55.047  1.00 99.99     0.174 HD
ATOM     84 2HH1 ARG     2      65.757  38.858  56.303  1.00 99.99     0.174 HD
ENDBRANCH  75  76
ENDBRANCH  74  75
ENDBRANCH  73  74
ENDBRANCH  10  73
ENDBRANCH   8  10
ENDBRANCH   5   6
BRANCH   5  85
ATOM     85  CB  PHE     1      57.805  42.645  52.737  1.00  0.00     0.064 C 
BRANCH  85  86
ATOM     86  CG  PHE     1      56.675  42.230  51.796  1.00  0.00    -0.044 A 
ATOM     87  CD2 PHE     1      55.785  43.171  51.289  1.00  0.00     0.008 A 
ATOM     88  CE2 PHE     1      54.845  42.792  50.339  1.00  0.00     0.001 A 
ATOM     89  CZ  PHE     1      54.787  41.475  49.906  1.00  0.00     0.000 A 
ATOM     90  CE1 PHE     1      55.659  40.530  50.430  1.00  0.00     0.001 A 
ATOM     91  CD1 PHE     1      56.599  40.905  51.383  1.00  0.00     0.008 A 
ENDBRANCH  85  86
ENDBRANCH   5  85
ENDBRANCH   1   5
TORSDOF 32
ENDMDL
MODEL 2
REMARK VINA RESULT:      -5.0      2.984      7.325
REMARK  32 active torsions:
REMARK  status: ('A' for Active; 'I' for Inactive)
REMARK    1  A    between atoms: N_1  and  CA_2 
REMARK    2  A    between atoms: CA_2  and  C_3 
REMARK    3  A    between atoms: CA_2  and  CB_5 
REMARK       I    between atoms: C_3  and  N_15 
REMARK    4  A    between atoms: CB_5  and  CG_6 
REMARK    5  A    between atoms: N_15  and  CA_16 
REMARK    6  A    between atoms: CA_16  and  C_17 
REMARK    7  A    between atoms: CA_16  and  CB_19 
REMARK       I    between atoms: C_17  and  N_32 
REMARK    8  A    between atoms: CB_19  and  CG_20 
REMARK    9  A    between atoms: CG_20  and  CD_21 
REMARK   10  A    between atoms: CD_21  and  NE_22 
REMARK       I    between atoms: NE_22  and  CZ_23 
REMARK       I    between atoms: CZ_23  and  NH2_25 
REMARK       I    between atoms: CZ_23  and  NH1_24 
REMARK   11  A    between atoms: N_32  and  CA_33 
REMARK   12  A    between atoms: CA_33  and  C_34 
REMARK   13  A    between atoms: CA_33  and  CB_36 
REMARK       I    between atoms: C_34  and  N_41 
REMARK   14  A    between atoms: CB_36  and  CG1_37 
REMARK   15  A    between atoms: N_41  and  CA_42 
REMARK   16  A    between atoms: CA_42  and  C_43 
REMARK   17  A    between atoms: CA_42  and  CB_45 
REMARK       I    between atoms: C_43  and  N_58 
REMARK   18  A    between atoms: CB_45  and  CG_46 
REMARK   19  A    between atoms: CG_46  and  CD_47 
REMARK   20  A    between atoms: CD_47  and  NE_48 
REMARK       I    between atoms: NE_48  and  CZ_49 
REMARK       I    between atoms: CZ_49  and  NH1_50 
REMARK       I    between atoms: CZ_49  and  NH2_51 
REMARK   21  A    between atoms: N_58  and  CA_59 
REMARK   22  A    between atoms: CA_59  and  C_60 
REMARK   23  A    between atoms: CA_59  and  CB_62 
REMARK       I    between atoms: C_60  and  N_66 
REMARK   24  A    between atoms: N_66  and  CA_67 
REMARK   25  A    between atoms: CA_67  and  CB_70 
REMARK   26  A    between atoms: CA_67  and  C_68 
REMARK       I    between atoms: C_68  and  N_83 
REMARK   27  A    between atoms: CB_70  and  CG_71 
REMARK   28  A    between atoms: CG_71  and  CD_72 
REMARK   29  A    between atoms: CD_72  and  NE_73 
REMARK       I    between atoms: NE_73  and  CZ_74 
REMARK       I    between atoms: CZ_74  and  NH1_75 
REMARK   30  A    between atoms: N_83  and  CA_84 
REMARK   31  A    between atoms: CA_84  and  CB_87 
REMARK   32  A    between atoms: CA_84  and  C_85 
ROOT
ATOM      1  N   PHE     1      62.495  45.156  51.598  1.00  0.00    -0.057 N 
ATOM      2  H1  PHE     1      61.917  44.872  52.366  1.00 99.99     0.276 HD
ATOM      3  H2  PHE     1      63.323  45.570  51.951  1.00 99.99     0.276 HD
ATOM      4  H3  PHE     1      62.035  45.888  51.110  1.00 99.99     0.276 HD
ENDROOT
BRANCH   1   5
ATOM      5  CA  PHE     1      62.750  43.963  50.748  1.00  0.00     0.259 C 
BRANCH   5   6
ATOM      6  C   PHE     1      63.091  44.362  49.283  1.00  0.00     0.259 C 
ATOM      7  O   PHE     1      63.034  45.544  48.958  1.00  0.00    -0.271 OA
ATOM      8  N   ARG     2      63.436  43.404  48.410  1.00  0.00    -0.338 N 
ATOM      9  H   ARG     2      63.629  42.470  48.702  1.00 99.99     0.164 HD
BRANCH   8  10
ATOM     10  CA  ARG     2      63.666  43.659  46.966  1.00  0.00     0.159 C 
BRANCH  10  11
ATOM     11  C   ARG     2      63.141  42.543  46.037  1.00  0.00     0.251 C 
ATOM     12  O   ARG     2      63.464  42.508  44.852  1.00  0.00    -0.271 OA
ATOM     13  N   ILE     3      62.451  41.568  46.631  1.00  0.00    -0.338 N 
ATOM     14  H   ILE     3      62.371  41.529  47.625  1.00 99.99     0.164 HD
BRANCH  13  15
ATOM     15  CA  ILE     3      61.780  40.456  45.925  1.00  0.00     0.159 C 
BRANCH  15  16
ATOM     16  C   ILE     3      60.357  40.888  45.506  1.00  0.00     0.251 C 
ATOM     17  N   ARG     4      60.033  40.592  44.248  1.00  0.00    -0.338 N 
ATOM     18  H   ARG     4      60.702  40.180  43.634  1.00 99.99     0.164 HD
ATOM     19  O   ILE     3      59.590  41.396  46.320  1.00  0.00    -0.271 OA
BRANCH  17  20
ATOM     20  CA  ARG     4      58.753  40.966  43.600  1.00  0.00     0.159 C 
BRANCH  20  21
ATOM     21  C   ARG     4      57.544  40.047  43.860  1.00  0.00     0.251 C 
ATOM     22  O   ARG     4      57.017  39.446  42.926  1.00  0.00    -0.271 OA
ATOM     23  N   VAL     5      57.235  39.810  45.133  1.00  0.00    -0.338 N 
ATOM     24  H   VAL     5      57.748  40.209  45.887  1.00 99.99     0.164 HD
BRANCH  23  25
ATOM     25  CA  VAL     5      56.085  38.967  45.538  1.00  0.00     0.159 C 
BRANCH  25  26
ATOM     26  C   VAL     5      54.915  39.798  46.098  1.00  0.00     0.251 C 
ATOM     27  N   ARG     6      54.670  39.624  47.393  1.00  0.00    -0.338 N 
ATOM     28  H   ARG     6      55.229  39.032  47.968  1.00 99.99     0.164 HD
ATOM     29  O   VAL     5      54.320  40.616  45.396  1.00  0.00    -0.271 OA
BRANCH  27  30
ATOM     30  CA  ARG     6      53.586  40.327  48.104  1.00  0.00     0.159 C 
BRANCH  30  31
ATOM     31  CB  ARG     6      52.721  39.358  48.906  1.00  0.00     0.034 C 
BRANCH  31  32
ATOM     32  CG  ARG     6      53.486  38.128  49.395  1.00  0.00     0.027 C 
BRANCH  32  33
ATOM     33  CD  ARG     6      53.137  37.895  50.862  1.00  0.00     0.116 C 
BRANCH  33  34
ATOM     34  NE  ARG     6      53.389  39.117  51.642  1.00  0.00    -0.212 N 
ATOM     35  CZ  ARG     6      54.527  39.422  52.268  1.00  0.00     0.666 C 
ATOM     36  NH1 ARG     6      55.582  38.616  52.237  1.00  0.00    -0.235 N 
ATOM     37  NH2 ARG     6      54.623  40.543  52.969  1.00  0.00    -0.235 N 
ATOM     38 2HH1 ARG     6      55.516  37.757  51.736  1.00 99.99     0.174 HD
ATOM     39 1HH1 ARG     6      56.424  38.865  52.712  1.00 99.99     0.174 HD
ATOM     40 1HH2 ARG     6      55.481  40.757  53.430  1.00 99.99     0.174 HD
ATOM     41 2HH2 ARG     6      53.847  41.163  53.041  1.00 99.99     0.174 HD
ATOM     42  HE  ARG     6      52.622  39.755  51.694  1.00 99.99     0.178 HD
ENDBRANCH  33  34
ENDBRANCH  32  33
ENDBRANCH  31  32
ENDBRANCH  30  31
BRANCH  30  43
ATOM     43  C   ARG     6      54.143  41.380  49.066  1.00  0.00     0.251 C 
ATOM     44  N   VAL     7      55.410  41.664  48.810  1.00  0.00    -0.336 N 
ATOM     45  H   VAL     7      55.902  41.140  48.113  1.00 99.99     0.164 HD
ATOM     46  O   ARG     6      53.528  41.718  50.077  1.00  0.00    -0.271 OA
BRANCH  44  47
ATOM     47  CA  VAL     7      56.218  42.740  49.428  1.00  0.00     0.168 C 
BRANCH  47  48
ATOM     48  CB  VAL     7      57.461  42.195  50.174  1.00  0.00     0.031 C 
ATOM     49  CG1 VAL     7      57.388  42.495  51.675  1.00  0.00     0.003 C 
ATOM     50  CG2 VAL     7      57.709  40.692  49.978  1.00  0.00     0.003 C 
ENDBRANCH  47  48
BRANCH  47  51
ATOM     51  C   VAL     7      56.652  43.722  48.323  1.00  0.00     0.206 C 
ATOM     52  O   VAL     7      57.777  43.571  47.800  1.00 99.99    -0.646 OA
ATOM     53  OXT VAL     7      55.899  44.714  48.184  1.00 99.99    -0.646 OA
ENDBRANCH  47  51
ENDBRANCH  44  47
ENDBRANCH  30  43
ENDBRANCH  27  30
ENDBRANCH  25  26
BRANCH  25  54
ATOM     54  CB  VAL     5      56.483  37.824  46.498  1.00  0.00     0.029 C 
ATOM     55  CG2 VAL     5      57.930  37.906  46.999  1.00  0.00     0.002 C 
ATOM     56  CG1 VAL     5      56.212  36.456  45.864  1.00  0.00     0.002 C 
ENDBRANCH  25  54
ENDBRANCH  23  25
ENDBRANCH  20  21
BRANCH  20  57
ATOM     57  CB  ARG     4      58.957  41.111  42.089  1.00  0.00     0.034 C 
BRANCH  57  58
ATOM     58  CG  ARG     4      60.434  41.037  41.693  1.00  0.00     0.027 C 
BRANCH  58  59
ATOM     59  CD  ARG     4      60.880  42.351  41.056  1.00  0.00     0.116 C 
BRANCH  59  60
ATOM     60  NE  ARG     4      60.199  42.525  39.759  1.00  0.00    -0.212 N 
ATOM     61  CZ  ARG     4      59.377  43.522  39.421  1.00  0.00     0.666 C 
ATOM     62  NH1 ARG     4      59.069  44.500  40.266  1.00  0.00    -0.235 N 
ATOM     63  NH2 ARG     4      58.833  43.554  38.214  1.00  0.00    -0.235 N 
ATOM     64 1HH1 ARG     4      58.452  45.233  39.985  1.00 99.99     0.174 HD
ATOM     65 2HH1 ARG     4      59.461  44.487  41.181  1.00 99.99     0.174 HD
ATOM     66 2HH2 ARG     4      59.028  42.836  37.550  1.00 99.99     0.174 HD
ATOM     67 1HH2 ARG     4      58.221  44.305  37.972  1.00 99.99     0.174 HD
ATOM     68  HE  ARG     4      60.396  41.820  39.082  1.00 99.99     0.178 HD
ENDBRANCH  59  60
ENDBRANCH  58  59
ENDBRANCH  57  58
ENDBRANCH  20  57
ENDBRANCH  17  20
ENDBRANCH  15  16
BRANCH  15  69
ATOM     69  CB  ILE     3      61.763  39.211  46.847  1.00  0.00     0.029 C 
ATOM     70  CG2 ILE     3      62.995  38.329  46.598  1.00  0.00     0.002 C 
BRANCH  69  71
ATOM     71  CG1 ILE     3      61.707  39.626  48.330  1.00  0.00     0.002 C 
ATOM     72  CD  ILE     3      61.027  38.605  49.253  1.00  0.00     0.000 C 
ENDBRANCH  69  71
ENDBRANCH  15  69
ENDBRANCH  13  15
ENDBRANCH  10  11
BRANCH  10  73
ATOM     73  CB  ARG     2      65.159  43.877  46.683  1.00  0.00     0.034 C 
BRANCH  73  74
ATOM     74  CG  ARG     2      66.085  42.963  47.494  1.00  0.00     0.027 C 
BRANCH  74  75
ATOM     75  CD  ARG     2      67.134  43.804  48.226  1.00  0.00     0.116 C 
BRANCH  75  76
ATOM     76  NE  ARG     2      66.516  44.580  49.318  1.00  0.00    -0.212 N 
ATOM     77  HE  ARG     2      66.184  44.042  50.090  1.00 99.99     0.178 HD
ATOM     78  CZ  ARG     2      66.335  45.905  49.347  1.00  0.00     0.666 C 
ATOM     79  NH2 ARG     2      65.784  46.482  50.407  1.00  0.00    -0.235 N 
ATOM     80  NH1 ARG     2      66.711  46.692  48.345  1.00  0.00    -0.235 N 
ATOM     81 1HH2 ARG     2      65.657  47.473  50.413  1.00 99.99     0.174 HD
ATOM     82 2HH2 ARG     2      65.495  45.940  51.191  1.00 99.99     0.174 HD
ATOM     83 1HH1 ARG     2      66.564  47.679  48.396  1.00 99.99     0.174 HD
ATOM     84 2HH1 ARG     2      67.136  46.283  47.543  1.00 99.99     0.174 HD
ENDBRANCH  75  76
ENDBRANCH  74  75
ENDBRANCH  73  74
ENDBRANCH  10  73
ENDBRANCH   8  10
ENDBRANCH   5   6
BRANCH   5  85
ATOM     85  CB  PHE     1      61.552  42.994  50.787  1.00  0.00     0.064 C 
BRANCH  85  86
ATOM     86  CG  PHE     1      61.597  42.005  51.952  1.00  0.00    -0.044 A 
ATOM     87  CD2 PHE     1      62.530  42.145  52.973  1.00  0.00     0.008 A 
ATOM     88  CE2 PHE     1      62.470  41.310  54.082  1.00  0.00     0.001 A 
ATOM     89  CZ  PHE     1      61.490  40.332  54.164  1.00  0.00     0.000 A 
ATOM     90  CE1 PHE     1      60.574  40.176  53.133  1.00  0.00     0.001 A 
ATOM     91  CD1 PHE     1      60.631  41.007  52.020  1.00  0.00     0.008 A 
ENDBRANCH  85  86
ENDBRANCH   5  85
ENDBRANCH   1   5
TORSDOF 32
ENDMDL
MODEL 3
REMARK VINA RESULT:      -5.0      2.531     10.163
REMARK  32 active torsions:
REMARK  status: ('A' for Active; 'I' for Inactive)
REMARK    1  A    between atoms: N_1  and  CA_2 
REMARK    2  A    between atoms: CA_2  and  C_3 
REMARK    3  A    between atoms: CA_2  and  CB_5 
REMARK       I    between atoms: C_3  and  N_15 
REMARK    4  A    between atoms: CB_5  and  CG_6 
REMARK    5  A    between atoms: N_15  and  CA_16 
REMARK    6  A    between atoms: CA_16  and  C_17 
REMARK    7  A    between atoms: CA_16  and  CB_19 
REMARK       I    between atoms: C_17  and  N_32 
REMARK    8  A    between atoms: CB_19  and  CG_20 
REMARK    9  A    between atoms: CG_20  and  CD_21 
REMARK   10  A    between atoms: CD_21  and  NE_22 
REMARK       I    between atoms: NE_22  and  CZ_23 
REMARK       I    between atoms: CZ_23  and  NH2_25 
REMARK       I    between atoms: CZ_23  and  NH1_24 
REMARK   11  A    between atoms: N_32  and  CA_33 
REMARK   12  A    between atoms: CA_33  and  C_34 
REMARK   13  A    between atoms: CA_33  and  CB_36 
REMARK       I    between atoms: C_34  and  N_41 
REMARK   14  A    between atoms: CB_36  and  CG1_37 
REMARK   15  A    between atoms: N_41  and  CA_42 
REMARK   16  A    between atoms: CA_42  and  C_43 
REMARK   17  A    between atoms: CA_42  and  CB_45 
REMARK       I    between atoms: C_43  and  N_58 
REMARK   18  A    between atoms: CB_45  and  CG_46 
REMARK   19  A    between atoms: CG_46  and  CD_47 
REMARK   20  A    between atoms: CD_47  and  NE_48 
REMARK       I    between atoms: NE_48  and  CZ_49 
REMARK       I    between atoms: CZ_49  and  NH1_50 
REMARK       I    between atoms: CZ_49  and  NH2_51 
REMARK   21  A    between atoms: N_58  and  CA_59 
REMARK   22  A    between atoms: CA_59  and  C_60 
REMARK   23  A    between atoms: CA_59  and  CB_62 
REMARK       I    between atoms: C_60  and  N_66 
REMARK   24  A    between atoms: N_66  and  CA_67 
REMARK   25  A    between atoms: CA_67  and  CB_70 
REMARK   26  A    between atoms: CA_67  and  C_68 
REMARK       I    between atoms: C_68  and  N_83 
REMARK   27  A    between atoms: CB_70  and  CG_71 
REMARK   28  A    between atoms: CG_71  and  CD_72 
REMARK   29  A    between atoms: CD_72  and  NE_73 
REMARK       I    between atoms: NE_73  and  CZ_74 
REMARK       I    between atoms: CZ_74  and  NH1_75 
REMARK   30  A    between atoms: N_83  and  CA_84 
REMARK   31  A    between atoms: CA_84  and  CB_87 
REMARK   32  A    between atoms: CA_84  and  C_85 
ROOT
ATOM      1  N   PHE     1      66.075  44.775  46.665  1.00  0.00    -0.057 N 
ATOM      2  H1  PHE     1      66.843  44.350  47.147  1.00 99.99     0.276 HD
ATOM      3  H2  PHE     1      66.424  45.408  45.989  1.00 99.99     0.276 HD
ATOM      4  H3  PHE     1      65.574  45.343  47.308  1.00 99.99     0.276 HD
ENDROOT
BRANCH   1   5
ATOM      5  CA  PHE     1      65.242  43.691  46.080  1.00  0.00     0.259 C 
BRANCH   5   6
ATOM      6  C   PHE     1      64.104  43.253  47.047  1.00  0.00     0.259 C 
ATOM      7  O   PHE     1      64.396  42.677  48.090  1.00  0.00    -0.271 OA
ATOM      8  N   ARG     2      62.831  43.515  46.716  1.00  0.00    -0.338 N 
ATOM      9  H   ARG     2      62.597  44.111  45.951  1.00 99.99     0.164 HD
BRANCH   8  10
ATOM     10  CA  ARG     2      61.667  43.040  47.506  1.00  0.00     0.159 C 
BRANCH  10  11
ATOM     11  C   ARG     2      60.345  42.986  46.710  1.00  0.00     0.251 C 
ATOM     12  O   ARG     2      60.312  43.308  45.524  1.00  0.00    -0.271 OA
ATOM     13  N   ILE     3      59.306  42.440  47.344  1.00  0.00    -0.338 N 
ATOM     14  H   ILE     3      59.418  42.015  48.239  1.00 99.99     0.164 HD
BRANCH  13  15
ATOM     15  CA  ILE     3      57.929  42.372  46.808  1.00  0.00     0.159 C 
BRANCH  15  16
ATOM     16  C   ILE     3      56.971  43.156  47.732  1.00  0.00     0.251 C 
ATOM     17  N   ARG     4      56.685  42.546  48.882  1.00  0.00    -0.338 N 
ATOM     18  H   ARG     4      57.028  41.630  49.071  1.00 99.99     0.164 HD
ATOM     19  O   ILE     3      56.586  44.282  47.427  1.00  0.00    -0.271 OA
BRANCH  17  20
ATOM     20  CA  ARG     4      55.739  43.070  49.897  1.00  0.00     0.159 C 
BRANCH  20  21
ATOM     21  C   ARG     4      56.182  42.994  51.370  1.00  0.00     0.251 C 
ATOM     22  O   ARG     4      55.704  43.770  52.195  1.00  0.00    -0.271 OA
ATOM     23  N   VAL     5      56.945  41.958  51.714  1.00  0.00    -0.338 N 
ATOM     24  H   VAL     5      57.227  41.267  51.056  1.00 99.99     0.164 HD
BRANCH  23  25
ATOM     25  CA  VAL     5      57.468  41.766  53.087  1.00  0.00     0.159 C 
BRANCH  25  26
ATOM     26  C   VAL     5      58.969  42.093  53.196  1.00  0.00     0.251 C 
ATOM     27  N   ARG     6      59.770  41.037  53.297  1.00  0.00    -0.338 N 
ATOM     28  H   ARG     6      59.428  40.102  53.262  1.00 99.99     0.164 HD
ATOM     29  O   VAL     5      59.376  43.252  53.112  1.00  0.00    -0.271 OA
BRANCH  27  30
ATOM     30  CA  ARG     6      61.236  41.153  53.417  1.00  0.00     0.159 C 
BRANCH  30  31
ATOM     31  CB  ARG     6      61.737  40.565  54.734  1.00  0.00     0.034 C 
BRANCH  31  32
ATOM     32  CG  ARG     6      62.873  41.373  55.363  1.00  0.00     0.027 C 
BRANCH  32  33
ATOM     33  CD  ARG     6      64.067  40.445  55.568  1.00  0.00     0.116 C 
BRANCH  33  34
ATOM     34  NE  ARG     6      64.999  40.563  54.437  1.00  0.00    -0.212 N 
ATOM     35  CZ  ARG     6      65.831  39.610  54.009  1.00  0.00     0.666 C 
ATOM     36  NH1 ARG     6      65.888  38.417  54.588  1.00  0.00    -0.235 N 
ATOM     37  NH2 ARG     6      66.650  39.846  52.994  1.00  0.00    -0.235 N 
ATOM     38 2HH1 ARG     6      65.296  38.233  55.369  1.00 99.99     0.174 HD
ATOM     39 1HH1 ARG     6      66.516  37.718  54.251  1.00 99.99     0.174 HD
ATOM     40 1HH2 ARG     6      67.264  39.124  52.685  1.00 99.99     0.174 HD
ATOM     41 2HH2 ARG     6      66.659  40.737  52.547  1.00 99.99     0.174 HD
ATOM     42  HE  ARG     6      64.992  41.445  53.969  1.00 99.99     0.178 HD
ENDBRANCH  33  34
ENDBRANCH  32  33
ENDBRANCH  31  32
ENDBRANCH  30  31
BRANCH  30  43
ATOM     43  C   ARG     6      61.947  40.432  52.270  1.00  0.00     0.251 C 
ATOM     44  N   VAL     7      61.179  39.508  51.713  1.00  0.00    -0.336 N 
ATOM     45  H   VAL     7      60.286  39.302  52.114  1.00 99.99     0.164 HD
ATOM     46  O   ARG     6      63.156  40.565  52.078  1.00  0.00    -0.271 OA
BRANCH  44  47
ATOM     47  CA  VAL     7      61.476  38.734  50.487  1.00  0.00     0.168 C 
BRANCH  47  48
ATOM     48  CB  VAL     7      60.630  37.441  50.381  1.00  0.00     0.031 C 
ATOM     49  CG1 VAL     7      60.973  36.651  49.114  1.00  0.00     0.003 C 
ATOM     50  CG2 VAL     7      60.745  36.509  51.597  1.00  0.00     0.003 C 
ENDBRANCH  47  48
BRANCH  47  51
ATOM     51  C   VAL     7      61.219  39.636  49.264  1.00  0.00     0.206 C 
ATOM     52  O   VAL     7      62.166  39.861  48.480  1.00 99.99    -0.646 OA
ATOM     53  OXT VAL     7      60.113  40.224  49.276  1.00 99.99    -0.646 OA
ENDBRANCH  47  51
ENDBRANCH  44  47
ENDBRANCH  30  43
ENDBRANCH  27  30
ENDBRANCH  25  26
BRANCH  25  54
ATOM     54  CB  VAL     5      57.146  40.369  53.664  1.00  0.00     0.029 C 
ATOM     55  CG2 VAL     5      56.112  39.581  52.851  1.00  0.00     0.002 C 
ATOM     56  CG1 VAL     5      56.713  40.469  55.131  1.00  0.00     0.002 C 
ENDBRANCH  25  54
ENDBRANCH  23  25
ENDBRANCH  20  21
BRANCH  20  57
ATOM     57  CB  ARG     4      54.379  42.381  49.746  1.00  0.00     0.034 C 
BRANCH  57  58
ATOM     58  CG  ARG     4      54.517  40.888  49.436  1.00  0.00     0.027 C 
BRANCH  58  59
ATOM     59  CD  ARG     4      53.138  40.236  49.339  1.00  0.00     0.116 C 
BRANCH  59  60
ATOM     60  NE  ARG     4      52.515  40.205  50.676  1.00  0.00    -0.212 N 
ATOM     61  CZ  ARG     4      52.595  39.212  51.566  1.00  0.00     0.666 C 
ATOM     62  NH1 ARG     4      53.269  38.095  51.318  1.00  0.00    -0.235 N 
ATOM     63  NH2 ARG     4      51.983  39.318  52.736  1.00  0.00    -0.235 N 
ATOM     64 1HH1 ARG     4      53.313  37.370  52.003  1.00 99.99     0.174 HD
ATOM     65 2HH1 ARG     4      53.728  37.993  50.440  1.00 99.99     0.174 HD
ATOM     66 2HH2 ARG     4      51.458  40.135  52.962  1.00 99.99     0.174 HD
ATOM     67 1HH2 ARG     4      52.051  38.570  53.394  1.00 99.99     0.174 HD
ATOM     68  HE  ARG     4      51.997  41.022  50.918  1.00 99.99     0.178 HD
ENDBRANCH  59  60
ENDBRANCH  58  59
ENDBRANCH  57  58
ENDBRANCH  20  57
ENDBRANCH  17  20
ENDBRANCH  15  16
BRANCH  15  69
ATOM     69  CB  ILE     3      57.518  40.886  46.666  1.00  0.00     0.029 C 
ATOM     70  CG2 ILE     3      56.240  40.749  45.827  1.00  0.00     0.002 C 
BRANCH  69  71
ATOM     71  CG1 ILE     3      58.653  40.058  46.032  1.00  0.00     0.002 C 
ATOM     72  CD  ILE     3      58.741  38.609  46.527  1.00  0.00     0.000 C 
ENDBRANCH  69  71
ENDBRANCH  15  69
ENDBRANCH  13  15
ENDBRANCH  10  11
BRANCH  10  73
ATOM     73  CB  ARG     2      61.461  43.914  48.751  1.00  0.00     0.034 C 
BRANCH  73  74
ATOM     74  CG  ARG     2      61.831  43.219  50.066  1.00  0.00     0.027 C 
BRANCH  74  75
ATOM     75  CD  ARG     2      62.615  44.183  50.961  1.00  0.00     0.116 C 
BRANCH  75  76
ATOM     76  NE  ARG     2      62.945  45.424  50.233  1.00  0.00    -0.212 N 
ATOM     77  HE  ARG     2      62.169  46.016  50.027  1.00 99.99     0.178 HD
ATOM     78  CZ  ARG     2      64.157  45.797  49.808  1.00  0.00     0.666 C 
ATOM     79  NH2 ARG     2      64.319  46.956  49.183  1.00  0.00    -0.235 N 
ATOM     80  NH1 ARG     2      65.237  45.049  50.006  1.00  0.00    -0.235 N 
ATOM     81 1HH2 ARG     2      65.231  47.221  48.873  1.00 99.99     0.174 HD
ATOM     82 2HH2 ARG     2      63.545  47.561  49.020  1.00 99.99     0.174 HD
ATOM     83 1HH1 ARG     2      66.129  45.355  49.677  1.00 99.99     0.174 HD
ATOM     84 2HH1 ARG     2      65.142  44.179  50.481  1.00 99.99     0.174 HD
ENDBRANCH  75  76
ENDBRANCH  74  75
ENDBRANCH  73  74
ENDBRANCH  10  73
ENDBRANCH   8  10
ENDBRANCH   5   6
BRANCH   5  85
ATOM     85  CB  PHE     1      66.113  42.485  45.678  1.00  0.00     0.064 C 
BRANCH  85  86
ATOM     86  CG  PHE     1      66.019  42.122  44.197  1.00  0.00    -0.044 A 
ATOM     87  CD2 PHE     1      67.045  41.429  43.563  1.00  0.00     0.008 A 
ATOM     88  CE2 PHE     1      66.883  41.001  42.252  1.00  0.00     0.001 A 
ATOM     89  CZ  PHE     1      65.705  41.276  41.571  1.00  0.00     0.000 A 
ATOM     90  CE1 PHE     1      64.691  41.990  42.194  1.00  0.00     0.001 A 
ATOM     91  CD1 PHE     1      64.850  42.422  43.506  1.00  0.00     0.008 A 
ENDBRANCH  85  86
ENDBRANCH   5  85
ENDBRANCH   1   5
TORSDOF 32
ENDMDL
MODEL 4
REMARK VINA RESULT:      -4.9      2.806      7.234
REMARK  32 active torsions:
REMARK  status: ('A' for Active; 'I' for Inactive)
REMARK    1  A    between atoms: N_1  and  CA_2 
REMARK    2  A    between atoms: CA_2  and  C_3 
REMARK    3  A    between atoms: CA_2  and  CB_5 
REMARK       I    between atoms: C_3  and  N_15 
REMARK    4  A    between atoms: CB_5  and  CG_6 
REMARK    5  A    between atoms: N_15  and  CA_16 
REMARK    6  A    between atoms: CA_16  and  C_17 
REMARK    7  A    between atoms: CA_16  and  CB_19 
REMARK       I    between atoms: C_17  and  N_32 
REMARK    8  A    between atoms: CB_19  and  CG_20 
REMARK    9  A    between atoms: CG_20  and  CD_21 
REMARK   10  A    between atoms: CD_21  and  NE_22 
REMARK       I    between atoms: NE_22  and  CZ_23 
REMARK       I    between atoms: CZ_23  and  NH2_25 
REMARK       I    between atoms: CZ_23  and  NH1_24 
REMARK   11  A    between atoms: N_32  and  CA_33 
REMARK   12  A    between atoms: CA_33  and  C_34 
REMARK   13  A    between atoms: CA_33  and  CB_36 
REMARK       I    between atoms: C_34  and  N_41 
REMARK   14  A    between atoms: CB_36  and  CG1_37 
REMARK   15  A    between atoms: N_41  and  CA_42 
REMARK   16  A    between atoms: CA_42  and  C_43 
REMARK   17  A    between atoms: CA_42  and  CB_45 
REMARK       I    between atoms: C_43  and  N_58 
REMARK   18  A    between atoms: CB_45  and  CG_46 
REMARK   19  A    between atoms: CG_46  and  CD_47 
REMARK   20  A    between atoms: CD_47  and  NE_48 
REMARK       I    between atoms: NE_48  and  CZ_49 
REMARK       I    between atoms: CZ_49  and  NH1_50 
REMARK       I    between atoms: CZ_49  and  NH2_51 
REMARK   21  A    between atoms: N_58  and  CA_59 
REMARK   22  A    between atoms: CA_59  and  C_60 
REMARK   23  A    between atoms: CA_59  and  CB_62 
REMARK       I    between atoms: C_60  and  N_66 
REMARK   24  A    between atoms: N_66  and  CA_67 
REMARK   25  A    between atoms: CA_67  and  CB_70 
REMARK   26  A    between atoms: CA_67  and  C_68 
REMARK       I    between atoms: C_68  and  N_83 
REMARK   27  A    between atoms: CB_70  and  CG_71 
REMARK   28  A    between atoms: CG_71  and  CD_72 
REMARK   29  A    between atoms: CD_72  and  NE_73 
REMARK       I    between atoms: NE_73  and  CZ_74 
REMARK       I    between atoms: CZ_74  and  NH1_75 
REMARK   30  A    between atoms: N_83  and  CA_84 
REMARK   31  A    between atoms: CA_84  and  CB_87 
REMARK   32  A    between atoms: CA_84  and  C_85 
ROOT
ATOM      1  N   PHE     1      58.038  43.954  46.129  1.00  0.00    -0.057 N 
ATOM      2  H1  PHE     1      58.559  44.786  45.929  1.00 99.99     0.276 HD
ATOM      3  H2  PHE     1      58.193  43.293  45.409  1.00 99.99     0.276 HD
ATOM      4  H3  PHE     1      57.070  44.167  46.072  1.00 99.99     0.276 HD
ENDROOT
BRANCH   1   5
ATOM      5  CA  PHE     1      58.446  43.467  47.474  1.00  0.00     0.259 C 
BRANCH   5   6
ATOM      6  C   PHE     1      59.876  42.854  47.455  1.00  0.00     0.259 C 
ATOM      7  O   PHE     1      60.038  41.733  46.983  1.00  0.00    -0.271 OA
ATOM      8  N   ARG     2      60.897  43.564  47.957  1.00  0.00    -0.338 N 
ATOM      9  H   ARG     2      60.799  44.527  48.202  1.00 99.99     0.164 HD
BRANCH   8  10
ATOM     10  CA  ARG     2      62.274  43.030  48.095  1.00  0.00     0.159 C 
BRANCH  10  11
ATOM     11  C   ARG     2      62.427  41.956  49.195  1.00  0.00     0.251 C 
ATOM     12  O   ARG     2      63.532  41.687  49.661  1.00  0.00    -0.271 OA
ATOM     13  N   ILE     3      61.290  41.463  49.689  1.00  0.00    -0.338 N 
ATOM     14  H   ILE     3      60.408  41.843  49.420  1.00 99.99     0.164 HD
BRANCH  13  15
ATOM     15  CA  ILE     3      61.203  40.365  50.675  1.00  0.00     0.159 C 
BRANCH  15  16
ATOM     16  C   ILE     3      60.343  39.217  50.102  1.00  0.00     0.251 C 
ATOM     17  N   ARG     4      59.480  39.587  49.157  1.00  0.00    -0.338 N 
ATOM     18  H   ARG     4      59.378  40.546  48.908  1.00 99.99     0.164 HD
ATOM     19  O   ILE     3      60.524  38.056  50.463  1.00  0.00    -0.271 OA
BRANCH  17  20
ATOM     20  CA  ARG     4      58.504  38.677  48.508  1.00  0.00     0.159 C 
BRANCH  20  21
ATOM     21  C   ARG     4      58.473  38.670  46.968  1.00  0.00     0.251 C 
ATOM     22  O   ARG     4      59.108  37.821  46.345  1.00  0.00    -0.271 OA
ATOM     23  N   VAL     5      57.604  39.491  46.382  1.00  0.00    -0.338 N 
ATOM     24  H   VAL     5      57.006  40.091  46.906  1.00 99.99     0.164 HD
BRANCH  23  25
ATOM     25  CA  VAL     5      57.477  39.612  44.911  1.00  0.00     0.159 C 
BRANCH  25  26
ATOM     26  C   VAL     5      58.384  40.714  44.331  1.00  0.00     0.251 C 
ATOM     27  N   ARG     6      59.654  40.364  44.158  1.00  0.00    -0.338 N 
ATOM     28  H   ARG     6      59.987  39.444  44.349  1.00 99.99     0.164 HD
ATOM     29  O   VAL     5      57.923  41.803  43.986  1.00  0.00    -0.271 OA
BRANCH  27  30
ATOM     30  CA  ARG     6      60.672  41.287  43.620  1.00  0.00     0.159 C 
BRANCH  30  31
ATOM     31  CB  ARG     6      62.049  41.012  44.221  1.00  0.00     0.034 C 
BRANCH  31  32
ATOM     32  CG  ARG     6      62.148  39.649  44.907  1.00  0.00     0.027 C 
BRANCH  32  33
ATOM     33  CD  ARG     6      62.925  39.821  46.208  1.00  0.00     0.116 C 
BRANCH  33  34
ATOM     34  NE  ARG     6      64.118  40.650  45.980  1.00  0.00    -0.212 N 
ATOM     35  CZ  ARG     6      65.196  40.700  46.766  1.00  0.00     0.666 C 
ATOM     36  NH1 ARG     6      65.293  39.969  47.870  1.00  0.00    -0.235 N 
ATOM     37  NH2 ARG     6      66.199  41.514  46.471  1.00  0.00    -0.235 N 
ATOM     38 2HH1 ARG     6      64.535  39.372  48.119  1.00 99.99     0.174 HD
ATOM     39 1HH1 ARG     6      66.109  40.021  48.443  1.00 99.99     0.174 HD
ATOM     40 1HH2 ARG     6      66.998  41.540  47.068  1.00 99.99     0.174 HD
ATOM     41 2HH2 ARG     6      66.156  42.101  45.667  1.00 99.99     0.174 HD
ATOM     42  HE  ARG     6      64.091  41.219  45.160  1.00 99.99     0.178 HD
ENDBRANCH  33  34
ENDBRANCH  32  33
ENDBRANCH  31  32
ENDBRANCH  30  31
BRANCH  30  43
ATOM     43  C   ARG     6      60.782  41.169  42.098  1.00  0.00     0.251 C 
ATOM     44  N   VAL     7      59.889  41.925  41.478  1.00  0.00    -0.336 N 
ATOM     45  H   VAL     7      59.199  42.414  42.013  1.00 99.99     0.164 HD
ATOM     46  O   ARG     6      61.467  40.295  41.567  1.00  0.00    -0.271 OA
BRANCH  44  47
ATOM     47  CA  VAL     7      59.808  42.183  40.022  1.00  0.00     0.168 C 
BRANCH  47  48
ATOM     48  CB  VAL     7      58.763  41.282  39.317  1.00  0.00     0.031 C 
ATOM     49  CG1 VAL     7      59.437  40.143  38.546  1.00  0.00     0.003 C 
ATOM     50  CG2 VAL     7      57.703  40.689  40.257  1.00  0.00     0.003 C 
ENDBRANCH  47  48
BRANCH  47  51
ATOM     51  C   VAL     7      59.457  43.668  39.806  1.00  0.00     0.206 C 
ATOM     52  O   VAL     7      59.170  44.051  38.653  1.00 99.99    -0.646 OA
ATOM     53  OXT VAL     7      59.683  44.404  40.796  1.00 99.99    -0.646 OA
ENDBRANCH  47  51
ENDBRANCH  44  47
ENDBRANCH  30  43
ENDBRANCH  27  30
ENDBRANCH  25  26
BRANCH  25  54
ATOM     54  CB  VAL     5      56.013  39.774  44.443  1.00  0.00     0.029 C 
ATOM     55  CG2 VAL     5      55.047  40.204  45.554  1.00  0.00     0.002 C 
ATOM     56  CG1 VAL     5      55.512  38.497  43.761  1.00  0.00     0.002 C 
ENDBRANCH  25  54
ENDBRANCH  23  25
ENDBRANCH  20  21
BRANCH  20  57
ATOM     57  CB  ARG     4      57.095  38.961  49.038  1.00  0.00     0.034 C 
BRANCH  57  58
ATOM     58  CG  ARG     4      56.361  37.681  49.445  1.00  0.00     0.027 C 
BRANCH  58  59
ATOM     59  CD  ARG     4      54.922  38.000  49.847  1.00  0.00     0.116 C 
BRANCH  59  60
ATOM     60  NE  ARG     4      54.903  38.541  51.219  1.00  0.00    -0.212 N 
ATOM     61  CZ  ARG     4      54.321  39.675  51.616  1.00  0.00     0.666 C 
ATOM     62  NH1 ARG     4      53.679  40.474  50.771  1.00  0.00    -0.235 N 
ATOM     63  NH2 ARG     4      54.382  40.042  52.888  1.00  0.00    -0.235 N 
ATOM     64 1HH1 ARG     4      53.254  41.316  51.098  1.00 99.99     0.174 HD
ATOM     65 2HH1 ARG     4      53.632  40.219  49.810  1.00 99.99     0.174 HD
ATOM     66 2HH2 ARG     4      54.861  39.479  53.557  1.00 99.99     0.174 HD
ATOM     67 1HH2 ARG     4      53.942  40.892  53.175  1.00 99.99     0.174 HD
ATOM     68  HE  ARG     4      55.368  37.980  51.900  1.00 99.99     0.178 HD
ENDBRANCH  59  60
ENDBRANCH  58  59
ENDBRANCH  57  58
ENDBRANCH  20  57
ENDBRANCH  17  20
ENDBRANCH  15  16
BRANCH  15  69
ATOM     69  CB  ILE     3      60.624  40.923  51.999  1.00  0.00     0.029 C 
ATOM     70  CG2 ILE     3      59.757  39.870  52.703  1.00  0.00     0.002 C 
BRANCH  69  71
ATOM     71  CG1 ILE     3      61.752  41.388  52.940  1.00  0.00     0.002 C 
ATOM     72  CD  ILE     3      62.194  42.843  52.738  1.00  0.00     0.000 C 
ENDBRANCH  69  71
ENDBRANCH  15  69
ENDBRANCH  13  15
ENDBRANCH  10  11
BRANCH  10  73
ATOM     73  CB  ARG     2      63.273  44.163  48.367  1.00  0.00     0.034 C 
BRANCH  73  74
ATOM     74  CG  ARG     2      62.769  45.208  49.368  1.00  0.00     0.027 C 
BRANCH  74  75
ATOM     75  CD  ARG     2      63.790  45.382  50.496  1.00  0.00     0.116 C 
BRANCH  75  76
ATOM     76  NE  ARG     2      64.716  46.493  50.201  1.00  0.00    -0.212 N 
ATOM     77  HE  ARG     2      64.339  47.407  50.329  1.00 99.99     0.178 HD
ATOM     78  CZ  ARG     2      65.972  46.382  49.755  1.00  0.00     0.666 C 
ATOM     79  NH2 ARG     2      66.707  47.467  49.551  1.00  0.00    -0.235 N 
ATOM     80  NH1 ARG     2      66.537  45.203  49.520  1.00  0.00    -0.235 N 
ATOM     81 1HH2 ARG     2      67.644  47.367  49.219  1.00 99.99     0.174 HD
ATOM     82 2HH2 ARG     2      66.336  48.375  49.723  1.00 99.99     0.174 HD
ATOM     83 1HH1 ARG     2      67.478  45.151  49.188  1.00 99.99     0.174 HD
ATOM     84 2HH1 ARG     2      66.009  44.373  49.675  1.00 99.99     0.174 HD
ENDBRANCH  75  76
ENDBRANCH  74  75
ENDBRANCH  73  74
ENDBRANCH  10  73
ENDBRANCH   8  10
ENDBRANCH   5   6
BRANCH   5  85
ATOM     85  CB  PHE     1      57.423  42.456  48.026  1.00  0.00     0.064 C 
BRANCH  85  86
ATOM     86  CG  PHE     1      56.943  42.773  49.441  1.00  0.00    -0.044 A 
ATOM     87  CD2 PHE     1      55.744  43.445  49.656  1.00  0.00     0.008 A 
ATOM     88  CE2 PHE     1      55.267  43.611  50.950  1.00  0.00     0.001 A 
ATOM     89  CZ  PHE     1      55.991  43.120  52.026  1.00  0.00     0.000 A 
ATOM     90  CE1 PHE     1      57.201  42.471  51.814  1.00  0.00     0.001 A 
ATOM     91  CD1 PHE     1      57.683  42.305  50.521  1.00  0.00     0.008 A 
ENDBRANCH  85  86
ENDBRANCH   5  85
ENDBRANCH   1   5
TORSDOF 32
ENDMDL
MODEL 5
REMARK VINA RESULT:      -4.9      2.285      3.220
REMARK  32 active torsions:
REMARK  status: ('A' for Active; 'I' for Inactive)
REMARK    1  A    between atoms: N_1  and  CA_2 
REMARK    2  A    between atoms: CA_2  and  C_3 
REMARK    3  A    between atoms: CA_2  and  CB_5 
REMARK       I    between atoms: C_3  and  N_15 
REMARK    4  A    between atoms: CB_5  and  CG_6 
REMARK    5  A    between atoms: N_15  and  CA_16 
REMARK    6  A    between atoms: CA_16  and  C_17 
REMARK    7  A    between atoms: CA_16  and  CB_19 
REMARK       I    between atoms: C_17  and  N_32 
REMARK    8  A    between atoms: CB_19  and  CG_20 
REMARK    9  A    between atoms: CG_20  and  CD_21 
REMARK   10  A    between atoms: CD_21  and  NE_22 
REMARK       I    between atoms: NE_22  and  CZ_23 
REMARK       I    between atoms: CZ_23  and  NH2_25 
REMARK       I    between atoms: CZ_23  and  NH1_24 
REMARK   11  A    between atoms: N_32  and  CA_33 
REMARK   12  A    between atoms: CA_33  and  C_34 
REMARK   13  A    between atoms: CA_33  and  CB_36 
REMARK       I    between atoms: C_34  and  N_41 
REMARK   14  A    between atoms: CB_36  and  CG1_37 
REMARK   15  A    between atoms: N_41  and  CA_42 
REMARK   16  A    between atoms: CA_42  and  C_43 
REMARK   17  A    between atoms: CA_42  and  CB_45 
REMARK       I    between atoms: C_43  and  N_58 
REMARK   18  A    between atoms: CB_45  and  CG_46 
REMARK   19  A    between atoms: CG_46  and  CD_47 
REMARK   20  A    between atoms: CD_47  and  NE_48 
REMARK       I    between atoms: NE_48  and  CZ_49 
REMARK       I    between atoms: CZ_49  and  NH1_50 
REMARK       I    between atoms: CZ_49  and  NH2_51 
REMARK   21  A    between atoms: N_58  and  CA_59 
REMARK   22  A    between atoms: CA_59  and  C_60 
REMARK   23  A    between atoms: CA_59  and  CB_62 
REMARK       I    between atoms: C_60  and  N_66 
REMARK   24  A    between atoms: N_66  and  CA_67 
REMARK   25  A    between atoms: CA_67  and  CB_70 
REMARK   26  A    between atoms: CA_67  and  C_68 
REMARK       I    between atoms: C_68  and  N_83 
REMARK   27  A    between atoms: CB_70  and  CG_71 
REMARK   28  A    between atoms: CG_71  and  CD_72 
REMARK   29  A    between atoms: CD_72  and  NE_73 
REMARK       I    between atoms: NE_73  and  CZ_74 
REMARK       I    between atoms: CZ_74  and  NH1_75 
REMARK   30  A    between atoms: N_83  and  CA_84 
REMARK   31  A    between atoms: CA_84  and  CB_87 
REMARK   32  A    between atoms: CA_84  and  C_85 
ROOT
ATOM      1  N   PHE     1      58.008  41.082  54.378  1.00  0.00    -0.057 N 
ATOM      2  H1  PHE     1      58.719  41.171  55.079  1.00 99.99     0.276 HD
ATOM      3  H2  PHE     1      57.191  41.551  54.683  1.00 99.99     0.276 HD
ATOM      4  H3  PHE     1      57.744  40.127  54.316  1.00 99.99     0.276 HD
ENDROOT
BRANCH   1   5
ATOM      5  CA  PHE     1      58.551  41.617  53.102  1.00  0.00     0.259 C 
BRANCH   5   6
ATOM      6  C   PHE     1      60.044  42.035  53.240  1.00  0.00     0.259 C 
ATOM      7  O   PHE     1      60.432  43.056  52.681  1.00  0.00    -0.271 OA
ATOM      8  N   ARG     2      60.871  41.268  53.966  1.00  0.00    -0.338 N 
ATOM      9  H   ARG     2      60.533  40.527  54.542  1.00 99.99     0.164 HD
BRANCH   8  10
ATOM     10  CA  ARG     2      62.332  41.510  54.067  1.00  0.00     0.159 C 
BRANCH  10  11
ATOM     11  C   ARG     2      63.157  40.872  52.927  1.00  0.00     0.251 C 
ATOM     12  O   ARG     2      64.013  40.025  53.171  1.00  0.00    -0.271 OA
ATOM     13  N   ILE     3      62.781  41.191  51.688  1.00  0.00    -0.338 N 
ATOM     14  H   ILE     3      61.960  41.733  51.525  1.00 99.99     0.164 HD
BRANCH  13  15
ATOM     15  CA  ILE     3      63.486  40.772  50.457  1.00  0.00     0.159 C 
BRANCH  15  16
ATOM     16  C   ILE     3      63.834  42.014  49.608  1.00  0.00     0.251 C 
ATOM     17  N   ARG     4      64.783  41.815  48.693  1.00  0.00    -0.338 N 
ATOM     18  H   ARG     4      65.253  40.939  48.631  1.00 99.99     0.164 HD
ATOM     19  O   ILE     3      63.211  43.064  49.746  1.00  0.00    -0.271 OA
BRANCH  17  20
ATOM     20  CA  ARG     4      65.331  42.871  47.808  1.00  0.00     0.159 C 
BRANCH  20  21
ATOM     21  C   ARG     4      65.914  42.417  46.457  1.00  0.00     0.251 C 
ATOM     22  O   ARG     4      67.128  42.463  46.266  1.00  0.00    -0.271 OA
ATOM     23  N   VAL     5      65.075  41.823  45.611  1.00  0.00    -0.338 N 
ATOM     24  H   VAL     5      64.114  41.683  45.829  1.00 99.99     0.164 HD
BRANCH  23  25
ATOM     25  CA  VAL     5      65.485  41.355  44.266  1.00  0.00     0.159 C 
BRANCH  25  26
ATOM     26  C   VAL     5      64.457  41.718  43.179  1.00  0.00     0.251 C 
ATOM     27  N   ARG     6      63.228  41.256  43.389  1.00  0.00    -0.338 N 
ATOM     28  H   ARG     6      62.981  40.749  44.211  1.00 99.99     0.164 HD
ATOM     29  O   VAL     5      64.758  42.450  42.236  1.00  0.00    -0.271 OA
BRANCH  27  30
ATOM     30  CA  ARG     6      62.113  41.495  42.455  1.00  0.00     0.159 C 
BRANCH  30  31
ATOM     31  CB  ARG     6      62.195  40.577  41.238  1.00  0.00     0.034 C 
BRANCH  31  32
ATOM     32  CG  ARG     6      62.131  41.330  39.908  1.00  0.00     0.027 C 
BRANCH  32  33
ATOM     33  CD  ARG     6      60.670  41.422  39.477  1.00  0.00     0.116 C 
BRANCH  33  34
ATOM     34  NE  ARG     6      60.260  42.831  39.380  1.00  0.00    -0.212 N 
ATOM     35  CZ  ARG     6      59.363  43.439  40.159  1.00  0.00     0.666 C 
ATOM     36  NH1 ARG     6      58.738  42.797  41.139  1.00  0.00    -0.235 N 
ATOM     37  NH2 ARG     6      59.052  44.710  39.953  1.00  0.00    -0.235 N 
ATOM     38 2HH1 ARG     6      58.942  41.834  41.290  1.00 99.99     0.174 HD
ATOM     39 1HH1 ARG     6      58.071  43.272  41.711  1.00 99.99     0.174 HD
ATOM     40 1HH2 ARG     6      58.381  45.151  40.545  1.00 99.99     0.174 HD
ATOM     41 2HH2 ARG     6      59.477  45.222  39.211  1.00 99.99     0.174 HD
ATOM     42  HE  ARG     6      60.704  43.355  38.655  1.00 99.99     0.178 HD
ENDBRANCH  33  34
ENDBRANCH  32  33
ENDBRANCH  31  32
ENDBRANCH  30  31
BRANCH  30  43
ATOM     43  C   ARG     6      60.760  41.270  43.134  1.00  0.00     0.251 C 
ATOM     44  N   VAL     7      60.599  42.053  44.189  1.00  0.00    -0.336 N 
ATOM     45  H   VAL     7      61.357  42.630  44.496  1.00 99.99     0.164 HD
ATOM     46  O   ARG     6      60.045  40.311  42.843  1.00  0.00    -0.271 OA
BRANCH  44  47
ATOM     47  CA  VAL     7      59.362  42.219  44.986  1.00  0.00     0.168 C 
BRANCH  47  48
ATOM     48  CB  VAL     7      59.570  41.887  46.484  1.00  0.00     0.031 C 
ATOM     49  CG1 VAL     7      59.519  40.376  46.733  1.00  0.00     0.003 C 
ATOM     50  CG2 VAL     7      60.871  42.446  47.081  1.00  0.00     0.003 C 
ENDBRANCH  47  48
BRANCH  47  51
ATOM     51  C   VAL     7      58.871  43.673  44.830  1.00  0.00     0.206 C 
ATOM     52  O   VAL     7      59.365  44.372  43.920  1.00 99.99    -0.646 OA
ATOM     53  OXT VAL     7      58.149  44.080  45.768  1.00 99.99    -0.646 OA
ENDBRANCH  47  51
ENDBRANCH  44  47
ENDBRANCH  30  43
ENDBRANCH  27  30
ENDBRANCH  25  26
BRANCH  25  54
ATOM     54  CB  VAL     5      65.845  39.853  44.234  1.00  0.00     0.029 C 
ATOM     55  CG2 VAL     5      65.774  39.225  42.837  1.00  0.00     0.002 C 
ATOM     56  CG1 VAL     5      64.982  39.062  45.222  1.00  0.00     0.002 C 
ENDBRANCH  25  54
ENDBRANCH  23  25
ENDBRANCH  20  21
BRANCH  20  57
ATOM     57  CB  ARG     4      66.387  43.686  48.563  1.00  0.00     0.034 C 
BRANCH  57  58
ATOM     58  CG  ARG     4      66.367  45.165  48.169  1.00  0.00     0.027 C 
BRANCH  58  59
ATOM     59  CD  ARG     4      66.249  46.044  49.413  1.00  0.00     0.116 C 
BRANCH  59  60
ATOM     60  NE  ARG     4      65.048  45.655  50.177  1.00  0.00    -0.212 N 
ATOM     61  CZ  ARG     4      63.856  46.256  50.141  1.00  0.00     0.666 C 
ATOM     62  NH1 ARG     4      63.625  47.322  49.383  1.00  0.00    -0.235 N 
ATOM     63  NH2 ARG     4      62.859  45.797  50.883  1.00  0.00    -0.235 N 
ATOM     64 1HH1 ARG     4      62.722  47.749  49.376  1.00 99.99     0.174 HD
ATOM     65 2HH1 ARG     4      64.365  47.686  48.826  1.00 99.99     0.174 HD
ATOM     66 2HH2 ARG     4      62.989  45.004  51.474  1.00 99.99     0.174 HD
ATOM     67 1HH2 ARG     4      61.971  46.253  50.847  1.00 99.99     0.174 HD
ATOM     68  HE  ARG     4      65.162  44.856  50.763  1.00 99.99     0.178 HD
ENDBRANCH  59  60
ENDBRANCH  58  59
ENDBRANCH  57  58
ENDBRANCH  20  57
ENDBRANCH  17  20
ENDBRANCH  15  16
BRANCH  15  69
ATOM     69  CB  ILE     3      62.594  39.769  49.685  1.00  0.00     0.029 C 
ATOM     70  CG2 ILE     3      62.959  38.322  50.046  1.00  0.00     0.002 C 
BRANCH  69  71
ATOM     71  CG1 ILE     3      61.102  40.021  49.975  1.00  0.00     0.002 C 
ATOM     72  CD  ILE     3      60.374  38.847  50.644  1.00  0.00     0.000 C 
ENDBRANCH  69  71
ENDBRANCH  15  69
ENDBRANCH  13  15
ENDBRANCH  10  11
BRANCH  10  73
ATOM     73  CB  ARG     2      62.875  41.010  55.412  1.00  0.00     0.034 C 
BRANCH  73  74
ATOM     74  CG  ARG     2      63.656  42.069  56.200  1.00  0.00     0.027 C 
BRANCH  74  75
ATOM     75  CD  ARG     2      64.158  41.473  57.517  1.00  0.00     0.116 C 
BRANCH  75  76
ATOM     76  NE  ARG     2      64.006  42.438  58.623  1.00  0.00    -0.212 N 
ATOM     77  HE  ARG     2      63.072  42.740  58.800  1.00 99.99     0.178 HD
ATOM     78  CZ  ARG     2      64.990  42.957  59.365  1.00  0.00     0.666 C 
ATOM     79  NH2 ARG     2      64.711  43.802  60.348  1.00  0.00    -0.235 N 
ATOM     80  NH1 ARG     2      66.265  42.641  59.169  1.00  0.00    -0.235 N 
ATOM     81 1HH2 ARG     2      65.458  44.180  60.895  1.00 99.99     0.174 HD
ATOM     82 2HH2 ARG     2      63.771  44.064  60.547  1.00 99.99     0.174 HD
ATOM     83 1HH1 ARG     2      66.979  43.043  59.741  1.00 99.99     0.174 HD
ATOM     84 2HH1 ARG     2      66.499  42.001  58.443  1.00 99.99     0.174 HD
ENDBRANCH  75  76
ENDBRANCH  74  75
ENDBRANCH  73  74
ENDBRANCH  10  73
ENDBRANCH   8  10
ENDBRANCH   5   6
BRANCH   5  85
ATOM     85  CB  PHE     1      57.699  42.794  52.591  1.00  0.00     0.064 C 
BRANCH  85  86
ATOM     86  CG  PHE     1      56.981  42.510  51.272  1.00  0.00    -0.044 A 
ATOM     87  CD2 PHE     1      57.565  41.707  50.298  1.00  0.00     0.008 A 
ATOM     88  CE2 PHE     1      56.842  41.361  49.164  1.00  0.00     0.001 A 
ATOM     89  CZ  PHE     1      55.546  41.824  48.996  1.00  0.00     0.000 A 
ATOM     90  CE1 PHE     1      54.971  42.647  49.956  1.00  0.00     0.001 A 
ATOM     91  CD1 PHE     1      55.691  42.998  51.092  1.00  0.00     0.008 A 
ENDBRANCH  85  86
ENDBRANCH   5  85
ENDBRANCH   1   5
TORSDOF 32
ENDMDL
MODEL 6
REMARK VINA RESULT:      -4.7      2.852     10.134
REMARK  32 active torsions:
REMARK  status: ('A' for Active; 'I' for Inactive)
REMARK    1  A    between atoms: N_1  and  CA_2 
REMARK    2  A    between atoms: CA_2  and  C_3 
REMARK    3  A    between atoms: CA_2  and  CB_5 
REMARK       I    between atoms: C_3  and  N_15 
REMARK    4  A    between atoms: CB_5  and  CG_6 
REMARK    5  A    between atoms: N_15  and  CA_16 
REMARK    6  A    between atoms: CA_16  and  C_17 
REMARK    7  A    between atoms: CA_16  and  CB_19 
REMARK       I    between atoms: C_17  and  N_32 
REMARK    8  A    between atoms: CB_19  and  CG_20 
REMARK    9  A    between atoms: CG_20  and  CD_21 
REMARK   10  A    between atoms: CD_21  and  NE_22 
REMARK       I    between atoms: NE_22  and  CZ_23 
REMARK       I    between atoms: CZ_23  and  NH2_25 
REMARK       I    between atoms: CZ_23  and  NH1_24 
REMARK   11  A    between atoms: N_32  and  CA_33 
REMARK   12  A    between atoms: CA_33  and  C_34 
REMARK   13  A    between atoms: CA_33  and  CB_36 
REMARK       I    between atoms: C_34  and  N_41 
REMARK   14  A    between atoms: CB_36  and  CG1_37 
REMARK   15  A    between atoms: N_41  and  CA_42 
REMARK   16  A    between atoms: CA_42  and  C_43 
REMARK   17  A    between atoms: CA_42  and  CB_45 
REMARK       I    between atoms: C_43  and  N_58 
REMARK   18  A    between atoms: CB_45  and  CG_46 
REMARK   19  A    between atoms: CG_46  and  CD_47 
REMARK   20  A    between atoms: CD_47  and  NE_48 
REMARK       I    between atoms: NE_48  and  CZ_49 
REMARK       I    between atoms: CZ_49  and  NH1_50 
REMARK       I    between atoms: CZ_49  and  NH2_51 
REMARK   21  A    between atoms: N_58  and  CA_59 
REMARK   22  A    between atoms: CA_59  and  C_60 
REMARK   23  A    between atoms: CA_59  and  CB_62 
REMARK       I    between atoms: C_60  and  N_66 
REMARK   24  A    between atoms: N_66  and  CA_67 
REMARK   25  A    between atoms: CA_67  and  CB_70 
REMARK   26  A    between atoms: CA_67  and  C_68 
REMARK       I    between atoms: C_68  and  N_83 
REMARK   27  A    between atoms: CB_70  and  CG_71 
REMARK   28  A    between atoms: CG_71  and  CD_72 
REMARK   29  A    between atoms: CD_72  and  NE_73 
REMARK       I    between atoms: NE_73  and  CZ_74 
REMARK       I    between atoms: CZ_74  and  NH1_75 
REMARK   30  A    between atoms: N_83  and  CA_84 
REMARK   31  A    between atoms: CA_84  and  CB_87 
REMARK   32  A    between atoms: CA_84  and  C_85 
ROOT
ATOM      1  N   PHE     1      66.098  44.835  46.547  1.00  0.00    -0.057 N 
ATOM      2  H1  PHE     1      66.883  44.439  47.027  1.00 99.99     0.276 HD
ATOM      3  H2  PHE     1      66.423  45.471  45.862  1.00 99.99     0.276 HD
ATOM      4  H3  PHE     1      65.584  45.393  47.187  1.00 99.99     0.276 HD
ENDROOT
BRANCH   1   5
ATOM      5  CA  PHE     1      65.295  43.718  45.980  1.00  0.00     0.259 C 
BRANCH   5   6
ATOM      6  C   PHE     1      64.164  43.272  46.950  1.00  0.00     0.259 C 
ATOM      7  O   PHE     1      64.457  42.624  47.951  1.00  0.00    -0.271 OA
ATOM      8  N   ARG     2      62.895  43.603  46.669  1.00  0.00    -0.338 N 
ATOM      9  H   ARG     2      62.668  44.251  45.945  1.00 99.99     0.164 HD
BRANCH   8  10
ATOM     10  CA  ARG     2      61.732  43.131  47.461  1.00  0.00     0.159 C 
BRANCH  10  11
ATOM     11  C   ARG     2      60.414  43.051  46.659  1.00  0.00     0.251 C 
ATOM     12  O   ARG     2      60.379  43.376  45.475  1.00  0.00    -0.271 OA
ATOM     13  N   ILE     3      59.385  42.480  47.287  1.00  0.00    -0.338 N 
ATOM     14  H   ILE     3      59.503  42.054  48.181  1.00 99.99     0.164 HD
BRANCH  13  15
ATOM     15  CA  ILE     3      58.012  42.384  46.746  1.00  0.00     0.159 C 
BRANCH  15  16
ATOM     16  C   ILE     3      57.030  43.122  47.683  1.00  0.00     0.251 C 
ATOM     17  N   ARG     4      56.732  42.467  48.804  1.00  0.00    -0.338 N 
ATOM     18  H   ARG     4      57.082  41.548  48.964  1.00 99.99     0.164 HD
ATOM     19  O   ILE     3      56.637  44.255  47.414  1.00  0.00    -0.271 OA
BRANCH  17  20
ATOM     20  CA  ARG     4      55.763  42.942  49.822  1.00  0.00     0.159 C 
BRANCH  20  21
ATOM     21  C   ARG     4      56.221  42.906  51.292  1.00  0.00     0.251 C 
ATOM     22  O   ARG     4      55.896  43.811  52.058  1.00  0.00    -0.271 OA
ATOM     23  N   VAL     5      56.810  41.787  51.709  1.00  0.00    -0.338 N 
ATOM     24  H   VAL     5      56.960  41.010  51.105  1.00 99.99     0.164 HD
BRANCH  23  25
ATOM     25  CA  VAL     5      57.325  41.615  53.088  1.00  0.00     0.159 C 
BRANCH  25  26
ATOM     26  C   VAL     5      58.797  42.049  53.225  1.00  0.00     0.251 C 
ATOM     27  N   ARG     6      59.675  41.053  53.275  1.00  0.00    -0.338 N 
ATOM     28  H   ARG     6      59.406  40.098  53.188  1.00 99.99     0.164 HD
ATOM     29  O   VAL     5      59.115  43.238  53.206  1.00  0.00    -0.271 OA
BRANCH  27  30
ATOM     30  CA  ARG     6      61.127  41.273  53.412  1.00  0.00     0.159 C 
BRANCH  30  31
ATOM     31  CB  ARG     6      61.650  40.746  54.746  1.00  0.00     0.034 C 
BRANCH  31  32
ATOM     32  CG  ARG     6      60.745  39.685  55.373  1.00  0.00     0.027 C 
BRANCH  32  33
ATOM     33  CD  ARG     6      61.024  39.638  56.872  1.00  0.00     0.116 C 
BRANCH  33  34
ATOM     34  NE  ARG     6      59.917  40.263  57.612  1.00  0.00    -0.212 N 
ATOM     35  CZ  ARG     6      58.864  39.625  58.127  1.00  0.00     0.666 C 
ATOM     36  NH1 ARG     6      58.718  38.310  58.017  1.00  0.00    -0.235 N 
ATOM     37  NH2 ARG     6      57.910  40.305  58.747  1.00  0.00    -0.235 N 
ATOM     38 2HH1 ARG     6      59.414  37.789  57.530  1.00 99.99     0.174 HD
ATOM     39 1HH1 ARG     6      57.923  37.853  58.411  1.00 99.99     0.174 HD
ATOM     40 1HH2 ARG     6      57.130  39.813  59.128  1.00 99.99     0.174 HD
ATOM     41 2HH2 ARG     6      57.965  41.296  58.829  1.00 99.99     0.174 HD
ATOM     42  HE  ARG     6      59.982  41.254  57.719  1.00 99.99     0.178 HD
ENDBRANCH  33  34
ENDBRANCH  32  33
ENDBRANCH  31  32
ENDBRANCH  30  31
BRANCH  30  43
ATOM     43  C   ARG     6      61.903  40.583  52.288  1.00  0.00     0.251 C 
ATOM     44  N   VAL     7      61.162  39.691  51.650  1.00  0.00    -0.336 N 
ATOM     45  H   VAL     7      60.241  39.484  51.984  1.00 99.99     0.164 HD
ATOM     46  O   ARG     6      63.123  40.703  52.180  1.00  0.00    -0.271 OA
BRANCH  44  47
ATOM     47  CA  VAL     7      61.528  38.955  50.418  1.00  0.00     0.168 C 
BRANCH  47  48
ATOM     48  CB  VAL     7      60.833  37.575  50.321  1.00  0.00     0.031 C 
ATOM     49  CG1 VAL     7      61.812  36.434  50.613  1.00  0.00     0.003 C 
ATOM     50  CG2 VAL     7      59.603  37.421  51.229  1.00  0.00     0.003 C 
ENDBRANCH  47  48
BRANCH  47  51
ATOM     51  C   VAL     7      61.154  39.823  49.200  1.00  0.00     0.206 C 
ATOM     52  O   VAL     7      60.030  40.369  49.181  1.00 99.99    -0.646 OA
ATOM     53  OXT VAL     7      61.954  39.743  48.239  1.00 99.99    -0.646 OA
ENDBRANCH  47  51
ENDBRANCH  44  47
ENDBRANCH  30  43
ENDBRANCH  27  30
ENDBRANCH  25  26
BRANCH  25  54
ATOM     54  CB  VAL     5      57.097  40.192  53.644  1.00  0.00     0.029 C 
ATOM     55  CG2 VAL     5      56.089  39.362  52.838  1.00  0.00     0.002 C 
ATOM     56  CG1 VAL     5      56.694  40.239  55.121  1.00  0.00     0.002 C 
ENDBRANCH  25  54
ENDBRANCH  23  25
ENDBRANCH  20  21
BRANCH  20  57
ATOM     57  CB  ARG     4      54.446  42.171  49.687  1.00  0.00     0.034 C 
BRANCH  57  58
ATOM     58  CG  ARG     4      54.632  40.825  48.982  1.00  0.00     0.027 C 
BRANCH  58  59
ATOM     59  CD  ARG     4      53.284  40.126  48.808  1.00  0.00     0.116 C 
BRANCH  59  60
ATOM     60  NE  ARG     4      53.101  39.136  49.885  1.00  0.00    -0.212 N 
ATOM     61  CZ  ARG     4      52.289  39.251  50.939  1.00  0.00     0.666 C 
ATOM     62  NH1 ARG     4      51.537  40.328  51.137  1.00  0.00    -0.235 N 
ATOM     63  NH2 ARG     4      52.222  38.278  51.835  1.00  0.00    -0.235 N 
ATOM     64 1HH1 ARG     4      50.939  40.385  51.934  1.00 99.99     0.174 HD
ATOM     65 2HH1 ARG     4      51.581  41.074  50.479  1.00 99.99     0.174 HD
ATOM     66 2HH2 ARG     4      52.776  37.455  51.733  1.00 99.99     0.174 HD
ATOM     67 1HH2 ARG     4      51.611  38.374  52.619  1.00 99.99     0.174 HD
ATOM     68  HE  ARG     4      53.640  38.303  49.788  1.00 99.99     0.178 HD
ENDBRANCH  59  60
ENDBRANCH  58  59
ENDBRANCH  57  58
ENDBRANCH  20  57
ENDBRANCH  17  20
ENDBRANCH  15  16
BRANCH  15  69
ATOM     69  CB  ILE     3      57.643  40.891  46.573  1.00  0.00     0.029 C 
ATOM     70  CG2 ILE     3      56.374  40.735  45.724  1.00  0.00     0.002 C 
BRANCH  69  71
ATOM     71  CG1 ILE     3      58.804  40.107  45.930  1.00  0.00     0.002 C 
ATOM     72  CD  ILE     3      58.921  38.648  46.390  1.00  0.00     0.000 C 
ENDBRANCH  69  71
ENDBRANCH  15  69
ENDBRANCH  13  15
ENDBRANCH  10  11
BRANCH  10  73
ATOM     73  CB  ARG     2      61.512  44.023  48.690  1.00  0.00     0.034 C 
BRANCH  73  74
ATOM     74  CG  ARG     2      61.808  43.328  50.024  1.00  0.00     0.027 C 
BRANCH  74  75
ATOM     75  CD  ARG     2      62.602  44.268  50.935  1.00  0.00     0.116 C 
BRANCH  75  76
ATOM     76  NE  ARG     2      62.995  45.493  50.211  1.00  0.00    -0.212 N 
ATOM     77  HE  ARG     2      62.253  46.133  50.024  1.00 99.99     0.178 HD
ATOM     78  CZ  ARG     2      64.219  45.794  49.767  1.00  0.00     0.666 C 
ATOM     79  NH2 ARG     2      64.442  46.947  49.148  1.00  0.00    -0.235 N 
ATOM     80  NH1 ARG     2      65.255  44.980  49.939  1.00  0.00    -0.235 N 
ATOM     81 1HH2 ARG     2      65.363  47.158  48.824  1.00 99.99     0.174 HD
ATOM     82 2HH2 ARG     2      63.704  47.600  49.004  1.00 99.99     0.174 HD
ATOM     83 1HH1 ARG     2      66.159  45.233  49.598  1.00 99.99     0.174 HD
ATOM     84 2HH1 ARG     2      65.115  44.113  50.410  1.00 99.99     0.174 HD
ENDBRANCH  75  76
ENDBRANCH  74  75
ENDBRANCH  73  74
ENDBRANCH  10  73
ENDBRANCH   8  10
ENDBRANCH   5   6
BRANCH   5  85
ATOM     85  CB  PHE     1      66.198  42.527  45.606  1.00  0.00     0.064 C 
BRANCH  85  86
ATOM     86  CG  PHE     1      65.972  42.002  44.189  1.00  0.00    -0.044 A 
ATOM     87  CD2 PHE     1      66.826  41.056  43.632  1.00  0.00     0.008 A 
ATOM     88  CE2 PHE     1      66.529  40.501  42.394  1.00  0.00     0.001 A 
ATOM     89  CZ  PHE     1      65.390  40.899  41.709  1.00  0.00     0.000 A 
ATOM     90  CE1 PHE     1      64.551  41.863  42.252  1.00  0.00     0.001 A 
ATOM     91  CD1 PHE     1      64.845  42.422  43.491  1.00  0.00     0.008 A 
ENDBRANCH  85  86
ENDBRANCH   5  85
ENDBRANCH   1   5
TORSDOF 32
ENDMDL
MODEL 7
REMARK VINA RESULT:      -4.7      3.216      7.560
REMARK  32 active torsions:
REMARK  status: ('A' for Active; 'I' for Inactive)
REMARK    1  A    between atoms: N_1  and  CA_2 
REMARK    2  A    between atoms: CA_2  and  C_3 
REMARK    3  A    between atoms: CA_2  and  CB_5 
REMARK       I    between atoms: C_3  and  N_15 
REMARK    4  A    between atoms: CB_5  and  CG_6 
REMARK    5  A    between atoms: N_15  and  CA_16 
REMARK    6  A    between atoms: CA_16  and  C_17 
REMARK    7  A    between atoms: CA_16  and  CB_19 
REMARK       I    between atoms: C_17  and  N_32 
REMARK    8  A    between atoms: CB_19  and  CG_20 
REMARK    9  A    between atoms: CG_20  and  CD_21 
REMARK   10  A    between atoms: CD_21  and  NE_22 
REMARK       I    between atoms: NE_22  and  CZ_23 
REMARK       I    between atoms: CZ_23  and  NH2_25 
REMARK       I    between atoms: CZ_23  and  NH1_24 
REMARK   11  A    between atoms: N_32  and  CA_33 
REMARK   12  A    between atoms: CA_33  and  C_34 
REMARK   13  A    between atoms: CA_33  and  CB_36 
REMARK       I    between atoms: C_34  and  N_41 
REMARK   14  A    between atoms: CB_36  and  CG1_37 
REMARK   15  A    between atoms: N_41  and  CA_42 
REMARK   16  A    between atoms: CA_42  and  C_43 
REMARK   17  A    between atoms: CA_42  and  CB_45 
REMARK       I    between atoms: C_43  and  N_58 
REMARK   18  A    between atoms: CB_45  and  CG_46 
REMARK   19  A    between atoms: CG_46  and  CD_47 
REMARK   20  A    between atoms: CD_47  and  NE_48 
REMARK       I    between atoms: NE_48  and  CZ_49 
REMARK       I    between atoms: CZ_49  and  NH1_50 
REMARK       I    between atoms: CZ_49  and  NH2_51 
REMARK   21  A    between atoms: N_58  and  CA_59 
REMARK   22  A    between atoms: CA_59  and  C_60 
REMARK   23  A    between atoms: CA_59  and  CB_62 
REMARK       I    between atoms: C_60  and  N_66 
REMARK   24  A    between atoms: N_66  and  CA_67 
REMARK   25  A    between atoms: CA_67  and  CB_70 
REMARK   26  A    between atoms: CA_67  and  C_68 
REMARK       I    between atoms: C_68  and  N_83 
REMARK   27  A    between atoms: CB_70  and  CG_71 
REMARK   28  A    between atoms: CG_71  and  CD_72 
REMARK   29  A    between atoms: CD_72  and  NE_73 
REMARK       I    between atoms: NE_73  and  CZ_74 
REMARK       I    between atoms: CZ_74  and  NH1_75 
REMARK   30  A    between atoms: N_83  and  CA_84 
REMARK   31  A    between atoms: CA_84  and  CB_87 
REMARK   32  A    between atoms: CA_84  and  C_85 
ROOT
ATOM      1  N   PHE     1      62.146  41.645  52.519  1.00  0.00    -0.057 N 
ATOM      2  H1  PHE     1      62.768  42.141  53.129  1.00 99.99     0.276 HD
ATOM      3  H2  PHE     1      61.613  41.003  53.051  1.00 99.99     0.276 HD
ATOM      4  H3  PHE     1      62.688  41.079  51.909  1.00 99.99     0.276 HD
ENDROOT
BRANCH   1   5
ATOM      5  CA  PHE     1      61.316  42.645  51.796  1.00  0.00     0.259 C 
BRANCH   5   6
ATOM      6  C   PHE     1      59.801  42.294  51.865  1.00  0.00     0.259 C 
ATOM      7  O   PHE     1      59.263  42.187  52.963  1.00  0.00    -0.271 OA
ATOM      8  N   ARG     2      59.120  42.116  50.724  1.00  0.00    -0.338 N 
ATOM      9  H   ARG     2      59.511  42.348  49.836  1.00 99.99     0.164 HD
BRANCH   8  10
ATOM     10  CA  ARG     2      57.707  41.667  50.677  1.00  0.00     0.159 C 
BRANCH  10  11
ATOM     11  C   ARG     2      57.429  40.568  49.628  1.00  0.00     0.251 C 
ATOM     12  O   ARG     2      58.044  39.504  49.654  1.00  0.00    -0.271 OA
ATOM     13  N   ILE     3      56.401  40.793  48.808  1.00  0.00    -0.338 N 
ATOM     14  H   ILE     3      55.804  41.581  48.940  1.00 99.99     0.164 HD
BRANCH  13  15
ATOM     15  CA  ILE     3      56.018  39.924  47.675  1.00  0.00     0.159 C 
BRANCH  15  16
ATOM     16  C   ILE     3      56.139  40.711  46.351  1.00  0.00     0.251 C 
ATOM     17  N   ARG     4      57.348  41.220  46.115  1.00  0.00    -0.338 N 
ATOM     18  H   ARG     4      58.076  41.135  46.790  1.00 99.99     0.164 HD
ATOM     19  O   ILE     3      55.193  40.775  45.569  1.00  0.00    -0.271 OA
BRANCH  17  20
ATOM     20  CA  ARG     4      57.689  42.067  44.946  1.00  0.00     0.159 C 
BRANCH  20  21
ATOM     21  C   ARG     4      58.505  41.407  43.819  1.00  0.00     0.251 C 
ATOM     22  O   ARG     4      58.190  40.293  43.405  1.00  0.00    -0.271 OA
ATOM     23  N   VAL     5      59.421  42.165  43.219  1.00  0.00    -0.338 N 
ATOM     24  H   VAL     5      59.584  43.110  43.486  1.00 99.99     0.164 HD
BRANCH  23  25
ATOM     25  CA  VAL     5      60.298  41.661  42.136  1.00  0.00     0.159 C 
BRANCH  25  26
ATOM     26  C   VAL     5      61.663  41.179  42.661  1.00  0.00     0.251 C 
ATOM     27  N   ARG     6      62.519  42.147  42.977  1.00  0.00    -0.338 N 
ATOM     28  H   ARG     6      62.279  43.113  42.918  1.00 99.99     0.164 HD
ATOM     29  O   VAL     5      61.891  39.983  42.842  1.00  0.00    -0.271 OA
BRANCH  27  30
ATOM     30  CA  ARG     6      63.876  41.880  43.489  1.00  0.00     0.159 C 
BRANCH  30  31
ATOM     31  CB  ARG     6      64.947  42.342  42.503  1.00  0.00     0.034 C 
BRANCH  31  32
ATOM     32  CG  ARG     6      65.817  41.200  41.978  1.00  0.00     0.027 C 
BRANCH  32  33
ATOM     33  CD  ARG     6      64.959  40.315  41.078  1.00  0.00     0.116 C 
BRANCH  33  34
ATOM     34  NE  ARG     6      65.515  38.955  41.028  1.00  0.00    -0.212 N 
ATOM     35  CZ  ARG     6      65.128  37.925  41.784  1.00  0.00     0.666 C 
ATOM     36  NH1 ARG     6      64.159  38.042  42.684  1.00  0.00    -0.235 N 
ATOM     37  NH2 ARG     6      65.730  36.750  41.669  1.00  0.00    -0.235 N 
ATOM     38 2HH1 ARG     6      63.715  38.926  42.800  1.00 99.99     0.174 HD
ATOM     39 1HH1 ARG     6      63.884  37.257  43.238  1.00 99.99     0.174 HD
ATOM     40 1HH2 ARG     6      65.428  35.990  42.240  1.00 99.99     0.174 HD
ATOM     41 2HH2 ARG     6      66.480  36.626  41.025  1.00 99.99     0.174 HD
ATOM     42  HE  ARG     6      66.249  38.819  40.365  1.00 99.99     0.178 HD
ENDBRANCH  33  34
ENDBRANCH  32  33
ENDBRANCH  31  32
ENDBRANCH  30  31
BRANCH  30  43
ATOM     43  C   ARG     6      64.116  42.588  44.824  1.00  0.00     0.251 C 
ATOM     44  N   VAL     7      65.287  42.266  45.352  1.00  0.00    -0.336 N 
ATOM     45  H   VAL     7      65.849  41.564  44.914  1.00 99.99     0.164 HD
ATOM     46  O   ARG     6      63.212  43.186  45.407  1.00  0.00    -0.271 OA
BRANCH  44  47
ATOM     47  CA  VAL     7      65.916  42.875  46.546  1.00  0.00     0.168 C 
BRANCH  47  48
ATOM     48  CB  VAL     7      66.602  41.827  47.457  1.00  0.00     0.031 C 
ATOM     49  CG1 VAL     7      65.791  41.581  48.733  1.00  0.00     0.003 C 
ATOM     50  CG2 VAL     7      66.876  40.479  46.773  1.00  0.00     0.003 C 
ENDBRANCH  47  48
BRANCH  47  51
ATOM     51  C   VAL     7      66.946  43.922  46.076  1.00  0.00     0.206 C 
ATOM     52  O   VAL     7      68.038  43.520  45.622  1.00 99.99    -0.646 OA
ATOM     53  OXT VAL     7      66.658  45.104  46.376  1.00 99.99    -0.646 OA
ENDBRANCH  47  51
ENDBRANCH  44  47
ENDBRANCH  30  43
ENDBRANCH  27  30
ENDBRANCH  25  26
BRANCH  25  54
ATOM     54  CB  VAL     5      60.456  42.665  40.973  1.00  0.00     0.029 C 
ATOM     55  CG2 VAL     5      59.167  43.417  40.617  1.00  0.00     0.002 C 
ATOM     56  CG1 VAL     5      61.037  41.979  39.732  1.00  0.00     0.002 C 
ENDBRANCH  25  54
ENDBRANCH  23  25
ENDBRANCH  20  21
BRANCH  20  57
ATOM     57  CB  ARG     4      58.412  43.333  45.415  1.00  0.00     0.034 C 
BRANCH  57  58
ATOM     58  CG  ARG     4      58.492  43.425  46.941  1.00  0.00     0.027 C 
BRANCH  58  59
ATOM     59  CD  ARG     4      59.949  43.381  47.400  1.00  0.00     0.116 C 
BRANCH  59  60
ATOM     60  NE  ARG     4      60.701  42.432  46.559  1.00  0.00    -0.212 N 
ATOM     61  CZ  ARG     4      60.891  41.132  46.804  1.00  0.00     0.666 C 
ATOM     62  NH1 ARG     4      60.406  40.540  47.889  1.00  0.00    -0.235 N 
ATOM     63  NH2 ARG     4      61.590  40.392  45.957  1.00  0.00    -0.235 N 
ATOM     64 1HH1 ARG     4      60.563  39.567  48.046  1.00 99.99     0.174 HD
ATOM     65 2HH1 ARG     4      59.885  41.083  48.542  1.00 99.99     0.174 HD
ATOM     66 2HH2 ARG     4      61.982  40.796  45.133  1.00 99.99     0.174 HD
ATOM     67 1HH2 ARG     4      61.725  39.421  46.150  1.00 99.99     0.174 HD
ATOM     68  HE  ARG     4      61.087  42.821  45.726  1.00 99.99     0.178 HD
ENDBRANCH  59  60
ENDBRANCH  58  59
ENDBRANCH  57  58
ENDBRANCH  20  57
ENDBRANCH  17  20
ENDBRANCH  15  16
BRANCH  15  69
ATOM     69  CB  ILE     3      54.581  39.396  47.910  1.00  0.00     0.029 C 
ATOM     70  CG2 ILE     3      54.609  38.023  48.596  1.00  0.00     0.002 C 
BRANCH  69  71
ATOM     71  CG1 ILE     3      53.761  40.389  48.755  1.00  0.00     0.002 C 
ATOM     72  CD  ILE     3      52.327  39.935  49.061  1.00  0.00     0.000 C 
ENDBRANCH  69  71
ENDBRANCH  15  69
ENDBRANCH  13  15
ENDBRANCH  10  11
BRANCH  10  73
ATOM     73  CB  ARG     2      56.767  42.851  50.416  1.00  0.00     0.034 C 
BRANCH  73  74
ATOM     74  CG  ARG     2      55.762  43.108  51.544  1.00  0.00     0.027 C 
BRANCH  74  75
ATOM     75  CD  ARG     2      55.830  41.974  52.569  1.00  0.00     0.116 C 
BRANCH  75  76
ATOM     76  NE  ARG     2      54.772  40.975  52.319  1.00  0.00    -0.212 N 
ATOM     77  HE  ARG     2      53.870  41.350  52.118  1.00 99.99     0.178 HD
ATOM     78  CZ  ARG     2      54.908  39.646  52.369  1.00  0.00     0.666 C 
ATOM     79  NH2 ARG     2      53.876  38.857  52.098  1.00  0.00    -0.235 N 
ATOM     80  NH1 ARG     2      56.064  39.064  52.668  1.00  0.00    -0.235 N 
ATOM     81 1HH2 ARG     2      53.995  37.866  52.138  1.00 99.99     0.174 HD
ATOM     82 2HH2 ARG     2      52.990  39.241  51.856  1.00 99.99     0.174 HD
ATOM     83 1HH1 ARG     2      56.136  38.067  52.696  1.00 99.99     0.174 HD
ATOM     84 2HH1 ARG     2      56.856  39.634  52.866  1.00 99.99     0.174 HD
ENDBRANCH  75  76
ENDBRANCH  74  75
ENDBRANCH  73  74
ENDBRANCH  10  73
ENDBRANCH   8  10
ENDBRANCH   5   6
BRANCH   5  85
ATOM     85  CB  PHE     1      61.778  42.790  50.334  1.00  0.00     0.064 C 
BRANCH  85  86
ATOM     86  CG  PHE     1      62.530  44.090  50.050  1.00  0.00    -0.044 A 
ATOM     87  CD2 PHE     1      62.570  45.113  50.991  1.00  0.00     0.008 A 
ATOM     88  CE2 PHE     1      63.362  46.231  50.763  1.00  0.00     0.001 A 
ATOM     89  CZ  PHE     1      64.101  46.333  49.594  1.00  0.00     0.000 A 
ATOM     90  CE1 PHE     1      64.040  45.324  48.641  1.00  0.00     0.001 A 
ATOM     91  CD1 PHE     1      63.247  44.204  48.865  1.00  0.00     0.008 A 
ENDBRANCH  85  86
ENDBRANCH   5  85
ENDBRANCH   1   5
TORSDOF 32
ENDMDL
MODEL 8
REMARK VINA RESULT:      -4.7      2.628      8.614
REMARK  32 active torsions:
REMARK  status: ('A' for Active; 'I' for Inactive)
REMARK    1  A    between atoms: N_1  and  CA_2 
REMARK    2  A    between atoms: CA_2  and  C_3 
REMARK    3  A    between atoms: CA_2  and  CB_5 
REMARK       I    between atoms: C_3  and  N_15 
REMARK    4  A    between atoms: CB_5  and  CG_6 
REMARK    5  A    between atoms: N_15  and  CA_16 
REMARK    6  A    between atoms: CA_16  and  C_17 
REMARK    7  A    between atoms: CA_16  and  CB_19 
REMARK       I    between atoms: C_17  and  N_32 
REMARK    8  A    between atoms: CB_19  and  CG_20 
REMARK    9  A    between atoms: CG_20  and  CD_21 
REMARK   10  A    between atoms: CD_21  and  NE_22 
REMARK       I    between atoms: NE_22  and  CZ_23 
REMARK       I    between atoms: CZ_23  and  NH2_25 
REMARK       I    between atoms: CZ_23  and  NH1_24 
REMARK   11  A    between atoms: N_32  and  CA_33 
REMARK   12  A    between atoms: CA_33  and  C_34 
REMARK   13  A    between atoms: CA_33  and  CB_36 
REMARK       I    between atoms: C_34  and  N_41 
REMARK   14  A    between atoms: CB_36  and  CG1_37 
REMARK   15  A    between atoms: N_41  and  CA_42 
REMARK   16  A    between atoms: CA_42  and  C_43 
REMARK   17  A    between atoms: CA_42  and  CB_45 
REMARK       I    between atoms: C_43  and  N_58 
REMARK   18  A    between atoms: CB_45  and  CG_46 
REMARK   19  A    between atoms: CG_46  and  CD_47 
REMARK   20  A    between atoms: CD_47  and  NE_48 
REMARK       I    between atoms: NE_48  and  CZ_49 
REMARK       I    between atoms: CZ_49  and  NH1_50 
REMARK       I    between atoms: CZ_49  and  NH2_51 
REMARK   21  A    between atoms: N_58  and  CA_59 
REMARK   22  A    between atoms: CA_59  and  C_60 
REMARK   23  A    between atoms: CA_59  and  CB_62 
REMARK       I    between atoms: C_60  and  N_66 
REMARK   24  A    between atoms: N_66  and  CA_67 
REMARK   25  A    between atoms: CA_67  and  CB_70 
REMARK   26  A    between atoms: CA_67  and  C_68 
REMARK       I    between atoms: C_68  and  N_83 
REMARK   27  A    between atoms: CB_70  and  CG_71 
REMARK   28  A    between atoms: CG_71  and  CD_72 
REMARK   29  A    between atoms: CD_72  and  NE_73 
REMARK       I    between atoms: NE_73  and  CZ_74 
REMARK       I    between atoms: CZ_74  and  NH1_75 
REMARK   30  A    between atoms: N_83  and  CA_84 
REMARK   31  A    between atoms: CA_84  and  CB_87 
REMARK   32  A    between atoms: CA_84  and  C_85 
ROOT
ATOM      1  N   PHE     1      55.509  37.801  48.039  1.00  0.00    -0.057 N 
ATOM      2  H1  PHE     1      54.544  37.535  48.024  1.00 99.99     0.276 HD
ATOM      3  H2  PHE     1      56.063  37.035  47.748  1.00 99.99     0.276 HD
ATOM      4  H3  PHE     1      55.777  37.964  48.981  1.00 99.99     0.276 HD
ENDROOT
BRANCH   1   5
ATOM      5  CA  PHE     1      55.667  39.002  47.176  1.00  0.00     0.259 C 
BRANCH   5   6
ATOM      6  C   PHE     1      56.621  40.052  47.818  1.00  0.00     0.259 C 
ATOM      7  O   PHE     1      57.443  39.680  48.651  1.00  0.00    -0.271 OA
ATOM      8  N   ARG     2      56.522  41.336  47.446  1.00  0.00    -0.338 N 
ATOM      9  H   ARG     2      55.965  41.618  46.667  1.00 99.99     0.164 HD
BRANCH   8  10
ATOM     10  CA  ARG     2      57.299  42.432  48.077  1.00  0.00     0.159 C 
BRANCH  10  11
ATOM     11  C   ARG     2      56.749  42.887  49.447  1.00  0.00     0.251 C 
ATOM     12  O   ARG     2      55.932  43.802  49.523  1.00  0.00    -0.271 OA
ATOM     13  N   ILE     3      57.102  42.140  50.494  1.00  0.00    -0.338 N 
ATOM     14  H   ILE     3      57.610  41.291  50.369  1.00 99.99     0.164 HD
BRANCH  13  15
ATOM     15  CA  ILE     3      56.768  42.445  51.902  1.00  0.00     0.159 C 
BRANCH  15  16
ATOM     16  C   ILE     3      58.061  42.486  52.746  1.00  0.00     0.251 C 
ATOM     17  N   ARG     4      58.766  41.355  52.740  1.00  0.00    -0.338 N 
ATOM     18  H   ARG     4      58.425  40.546  52.269  1.00 99.99     0.164 HD
ATOM     19  O   ILE     3      58.414  43.523  53.304  1.00  0.00    -0.271 OA
BRANCH  17  20
ATOM     20  CA  ARG     4      60.003  41.133  53.527  1.00  0.00     0.159 C 
BRANCH  20  21
ATOM     21  C   ARG     4      61.332  41.549  52.871  1.00  0.00     0.251 C 
ATOM     22  O   ARG     4      62.174  42.162  53.524  1.00  0.00    -0.271 OA
ATOM     23  N   VAL     5      61.580  41.062  51.656  1.00  0.00    -0.338 N 
ATOM     24  H   VAL     5      60.939  40.465  51.184  1.00 99.99     0.164 HD
BRANCH  23  25
ATOM     25  CA  VAL     5      62.804  41.394  50.890  1.00  0.00     0.159 C 
BRANCH  25  26
ATOM     26  C   VAL     5      62.552  42.464  49.811  1.00  0.00     0.251 C 
ATOM     27  N   ARG     6      63.316  42.362  48.728  1.00  0.00    -0.338 N 
ATOM     28  H   ARG     6      63.974  41.623  48.605  1.00 99.99     0.164 HD
ATOM     29  O   VAL     5      61.648  43.290  49.932  1.00  0.00    -0.271 OA
BRANCH  27  30
ATOM     30  CA  ARG     6      63.223  43.299  47.593  1.00  0.00     0.159 C 
BRANCH  30  31
ATOM     31  CB  ARG     6      64.593  43.860  47.217  1.00  0.00     0.034 C 
BRANCH  31  32
ATOM     32  CG  ARG     6      65.753  42.968  47.659  1.00  0.00     0.027 C 
BRANCH  32  33
ATOM     33  CD  ARG     6      66.833  43.852  48.277  1.00  0.00     0.116 C 
BRANCH  33  34
ATOM     34  NE  ARG     6      66.265  44.651  49.374  1.00  0.00    -0.212 N 
ATOM     35  CZ  ARG     6      66.205  45.983  49.419  1.00  0.00     0.666 C 
ATOM     36  NH1 ARG     6      66.667  46.739  48.431  1.00  0.00    -0.235 N 
ATOM     37  NH2 ARG     6      65.697  46.592  50.481  1.00  0.00    -0.235 N 
ATOM     38 2HH1 ARG     6      67.076  46.297  47.637  1.00 99.99     0.174 HD
ATOM     39 1HH1 ARG     6      66.610  47.735  48.485  1.00 99.99     0.174 HD
ATOM     40 1HH2 ARG     6      65.658  47.589  50.499  1.00 99.99     0.174 HD
ATOM     41 2HH2 ARG     6      65.364  46.064  51.257  1.00 99.99     0.174 HD
ATOM     42  HE  ARG     6      65.905  44.124  50.142  1.00 99.99     0.178 HD
ENDBRANCH  33  34
ENDBRANCH  32  33
ENDBRANCH  31  32
ENDBRANCH  30  31
BRANCH  30  43
ATOM     43  C   ARG     6      62.630  42.619  46.357  1.00  0.00     0.251 C 
ATOM     44  N   VAL     7      62.558  41.304  46.501  1.00  0.00    -0.336 N 
ATOM     45  H   VAL     7      62.952  40.875  47.315  1.00 99.99     0.164 HD
ATOM     46  O   ARG     6      62.472  43.229  45.299  1.00  0.00    -0.271 OA
BRANCH  44  47
ATOM     47  CA  VAL     7      61.897  40.349  45.583  1.00  0.00     0.168 C 
BRANCH  47  48
ATOM     48  CB  VAL     7      62.387  38.894  45.786  1.00  0.00     0.031 C 
ATOM     49  CG1 VAL     7      61.625  37.917  44.885  1.00  0.00     0.003 C 
ATOM     50  CG2 VAL     7      63.895  38.699  45.570  1.00  0.00     0.003 C 
ENDBRANCH  47  48
BRANCH  47  51
ATOM     51  C   VAL     7      60.374  40.431  45.805  1.00  0.00     0.206 C 
ATOM     52  O   VAL     7      59.647  40.738  44.837  1.00 99.99    -0.646 OA
ATOM     53  OXT VAL     7      60.020  40.365  47.006  1.00 99.99    -0.646 OA
ENDBRANCH  47  51
ENDBRANCH  44  47
ENDBRANCH  30  43
ENDBRANCH  27  30
ENDBRANCH  25  26
BRANCH  25  54
ATOM     54  CB  VAL     5      63.506  40.148  50.305  1.00  0.00     0.029 C 
ATOM     55  CG2 VAL     5      62.541  39.086  49.763  1.00  0.00     0.002 C 
ATOM     56  CG1 VAL     5      64.466  39.530  51.326  1.00  0.00     0.002 C 
ENDBRANCH  25  54
ENDBRANCH  23  25
ENDBRANCH  20  21
BRANCH  20  57
ATOM     57  CB  ARG     4      60.092  39.664  53.953  1.00  0.00     0.034 C 
BRANCH  57  58
ATOM     58  CG  ARG     4      59.117  38.775  53.177  1.00  0.00     0.027 C 
BRANCH  58  59
ATOM     59  CD  ARG     4      59.854  37.582  52.570  1.00  0.00     0.116 C 
BRANCH  59  60
ATOM     60  NE  ARG     4      58.887  36.702  51.887  1.00  0.00    -0.212 N 
ATOM     61  CZ  ARG     4      58.549  36.746  50.596  1.00  0.00     0.666 C 
ATOM     62  NH1 ARG     4      59.067  37.638  49.760  1.00  0.00    -0.235 N 
ATOM     63  NH2 ARG     4      57.661  35.889  50.113  1.00  0.00    -0.235 N 
ATOM     64 1HH1 ARG     4      58.796  37.646  48.799  1.00 99.99     0.174 HD
ATOM     65 2HH1 ARG     4      59.729  38.296  50.107  1.00 99.99     0.174 HD
ATOM     66 2HH2 ARG     4      57.238  35.208  50.705  1.00 99.99     0.174 HD
ATOM     67 1HH2 ARG     4      57.416  35.930  49.145  1.00 99.99     0.174 HD
ATOM     68  HE  ARG     4      58.467  36.008  52.467  1.00 99.99     0.178 HD
ENDBRANCH  59  60
ENDBRANCH  58  59
ENDBRANCH  57  58
ENDBRANCH  20  57
ENDBRANCH  17  20
ENDBRANCH  15  16
BRANCH  15  69
ATOM     69  CB  ILE     3      55.765  41.386  52.422  1.00  0.00     0.029 C 
ATOM     70  CG2 ILE     3      55.926  40.061  51.665  1.00  0.00     0.002 C 
BRANCH  69  71
ATOM     71  CG1 ILE     3      55.946  41.152  53.934  1.00  0.00     0.002 C 
ATOM     72  CD  ILE     3      55.063  40.042  54.519  1.00  0.00     0.000 C 
ENDBRANCH  69  71
ENDBRANCH  15  69
ENDBRANCH  13  15
ENDBRANCH  10  11
BRANCH  10  73
ATOM     73  CB  ARG     2      57.380  43.649  47.146  1.00  0.00     0.034 C 
BRANCH  73  74
ATOM     74  CG  ARG     2      58.727  43.795  46.430  1.00  0.00     0.027 C 
BRANCH  74  75
ATOM     75  CD  ARG     2      58.500  43.999  44.930  1.00  0.00     0.116 C 
BRANCH  75  76
ATOM     76  NE  ARG     2      59.768  43.879  44.185  1.00  0.00    -0.212 N 
ATOM     77  HE  ARG     2      60.555  44.321  44.610  1.00 99.99     0.178 HD
ATOM     78  CZ  ARG     2      59.942  43.275  43.005  1.00  0.00     0.666 C 
ATOM     79  NH2 ARG     2      61.147  43.219  42.453  1.00  0.00    -0.235 N 
ATOM     80  NH1 ARG     2      58.939  42.697  42.352  1.00  0.00    -0.235 N 
ATOM     81 1HH2 ARG     2      61.260  42.763  41.571  1.00 99.99     0.174 HD
ATOM     82 2HH2 ARG     2      61.935  43.626  42.905  1.00 99.99     0.174 HD
ATOM     83 1HH1 ARG     2      59.100  42.252  41.472  1.00 99.99     0.174 HD
ATOM     84 2HH1 ARG     2      58.027  42.717  42.751  1.00 99.99     0.174 HD
ENDBRANCH  75  76
ENDBRANCH  74  75
ENDBRANCH  73  74
ENDBRANCH  10  73
ENDBRANCH   8  10
ENDBRANCH   5   6
BRANCH   5  85
ATOM     85  CB  PHE     1      54.298  39.632  46.853  1.00  0.00     0.064 C 
BRANCH  85  86
ATOM     86  CG  PHE     1      53.318  39.612  48.026  1.00  0.00    -0.044 A 
ATOM     87  CD2 PHE     1      52.429  38.556  48.196  1.00  0.00     0.008 A 
ATOM     88  CE2 PHE     1      51.636  38.498  49.336  1.00  0.00     0.001 A 
ATOM     89  CZ  PHE     1      51.723  39.497  50.295  1.00  0.00     0.000 A 
ATOM     90  CE1 PHE     1      52.592  40.564  50.112  1.00  0.00     0.001 A 
ATOM     91  CD1 PHE     1      53.385  40.628  48.972  1.00  0.00     0.008 A 
ENDBRANCH  85  86
ENDBRANCH   5  85
ENDBRANCH   1   5
TORSDOF 32
ENDMDL
MODEL 9
REMARK VINA RESULT:      -4.7      2.886      8.246
REMARK  32 active torsions:
REMARK  status: ('A' for Active; 'I' for Inactive)
REMARK    1  A    between atoms: N_1  and  CA_2 
REMARK    2  A    between atoms: CA_2  and  C_3 
REMARK    3  A    between atoms: CA_2  and  CB_5 
REMARK       I    between atoms: C_3  and  N_15 
REMARK    4  A    between atoms: CB_5  and  CG_6 
REMARK    5  A    between atoms: N_15  and  CA_16 
REMARK    6  A    between atoms: CA_16  and  C_17 
REMARK    7  A    between atoms: CA_16  and  CB_19 
REMARK       I    between atoms: C_17  and  N_32 
REMARK    8  A    between atoms: CB_19  and  CG_20 
REMARK    9  A    between atoms: CG_20  and  CD_21 
REMARK   10  A    between atoms: CD_21  and  NE_22 
REMARK       I    between atoms: NE_22  and  CZ_23 
REMARK       I    between atoms: CZ_23  and  NH2_25 
REMARK       I    between atoms: CZ_23  and  NH1_24 
REMARK   11  A    between atoms: N_32  and  CA_33 
REMARK   12  A    between atoms: CA_33  and  C_34 
REMARK   13  A    between atoms: CA_33  and  CB_36 
REMARK       I    between atoms: C_34  and  N_41 
REMARK   14  A    between atoms: CB_36  and  CG1_37 
REMARK   15  A    between atoms: N_41  and  CA_42 
REMARK   16  A    between atoms: CA_42  and  C_43 
REMARK   17  A    between atoms: CA_42  and  CB_45 
REMARK       I    between atoms: C_43  and  N_58 
REMARK   18  A    between atoms: CB_45  and  CG_46 
REMARK   19  A    between atoms: CG_46  and  CD_47 
REMARK   20  A    between atoms: CD_47  and  NE_48 
REMARK       I    between atoms: NE_48  and  CZ_49 
REMARK       I    between atoms: CZ_49  and  NH1_50 
REMARK       I    between atoms: CZ_49  and  NH2_51 
REMARK   21  A    between atoms: N_58  and  CA_59 
REMARK   22  A    between atoms: CA_59  and  C_60 
REMARK   23  A    between atoms: CA_59  and  CB_62 
REMARK       I    between atoms: C_60  and  N_66 
REMARK   24  A    between atoms: N_66  and  CA_67 
REMARK   25  A    between atoms: CA_67  and  CB_70 
REMARK   26  A    between atoms: CA_67  and  C_68 
REMARK       I    between atoms: C_68  and  N_83 
REMARK   27  A    between atoms: CB_70  and  CG_71 
REMARK   28  A    between atoms: CG_71  and  CD_72 
REMARK   29  A    between atoms: CD_72  and  NE_73 
REMARK       I    between atoms: NE_73  and  CZ_74 
REMARK       I    between atoms: CZ_74  and  NH1_75 
REMARK   30  A    between atoms: N_83  and  CA_84 
REMARK   31  A    between atoms: CA_84  and  CB_87 
REMARK   32  A    between atoms: CA_84  and  C_85 
ROOT
ATOM      1  N   PHE     1      65.220  43.597  45.694  1.00  0.00    -0.057 N 
ATOM      2  H1  PHE     1      64.529  43.840  45.011  1.00 99.99     0.276 HD
ATOM      3  H2  PHE     1      65.572  44.423  46.110  1.00 99.99     0.276 HD
ATOM      4  H3  PHE     1      66.000  43.198  45.226  1.00 99.99     0.276 HD
ENDROOT
BRANCH   1   5
ATOM      5  CA  PHE     1      64.594  42.667  46.671  1.00  0.00     0.259 C 
BRANCH   5   6
ATOM      6  C   PHE     1      64.325  41.268  46.045  1.00  0.00     0.259 C 
ATOM      7  O   PHE     1      65.068  40.859  45.158  1.00  0.00    -0.271 OA
ATOM      8  N   ARG     2      63.287  40.543  46.488  1.00  0.00    -0.338 N 
ATOM      9  H   ARG     2      62.775  40.802  47.304  1.00 99.99     0.164 HD
BRANCH   8  10
ATOM     10  CA  ARG     2      62.874  39.253  45.882  1.00  0.00     0.159 C 
BRANCH  10  11
ATOM     11  C   ARG     2      61.420  39.240  45.359  1.00  0.00     0.251 C 
ATOM     12  O   ARG     2      61.187  39.223  44.153  1.00  0.00    -0.271 OA
ATOM     13  N   ILE     3      60.470  39.102  46.285  1.00  0.00    -0.338 N 
ATOM     14  H   ILE     3      60.705  38.927  47.238  1.00 99.99     0.164 HD
BRANCH  13  15
ATOM     15  CA  ILE     3      59.017  39.158  46.019  1.00  0.00     0.159 C 
BRANCH  15  16
ATOM     16  C   ILE     3      58.517  40.613  46.155  1.00  0.00     0.251 C 
ATOM     17  N   ARG     4      59.420  41.469  46.634  1.00  0.00    -0.338 N 
ATOM     18  H   ARG     4      60.316  41.149  46.930  1.00 99.99     0.164 HD
ATOM     19  O   ILE     3      57.394  40.931  45.770  1.00  0.00    -0.271 OA
BRANCH  17  20
ATOM     20  CA  ARG     4      59.154  42.901  46.914  1.00  0.00     0.159 C 
BRANCH  20  21
ATOM     21  C   ARG     4      57.823  43.240  47.611  1.00  0.00     0.251 C 
ATOM     22  O   ARG     4      57.050  44.047  47.098  1.00  0.00    -0.271 OA
ATOM     23  N   VAL     5      57.491  42.497  48.664  1.00  0.00    -0.338 N 
ATOM     24  H   VAL     5      58.073  41.761  48.999  1.00 99.99     0.164 HD
BRANCH  23  25
ATOM     25  CA  VAL     5      56.254  42.721  49.450  1.00  0.00     0.159 C 
BRANCH  25  26
ATOM     26  C   VAL     5      56.503  42.665  50.968  1.00  0.00     0.251 C 
ATOM     27  N   ARG     6      57.257  41.650  51.379  1.00  0.00    -0.338 N 
ATOM     28  H   ARG     6      57.665  40.997  50.746  1.00 99.99     0.164 HD
ATOM     29  O   VAL     5      56.092  43.553  51.715  1.00  0.00    -0.271 OA
BRANCH  27  30
ATOM     30  CA  ARG     6      57.598  41.428  52.796  1.00  0.00     0.159 C 
BRANCH  30  31
ATOM     31  CB  ARG     6      56.712  40.355  53.424  1.00  0.00     0.034 C 
BRANCH  31  32
ATOM     32  CG  ARG     6      55.388  40.901  53.960  1.00  0.00     0.027 C 
BRANCH  32  33
ATOM     33  CD  ARG     6      54.365  39.770  53.962  1.00  0.00     0.116 C 
BRANCH  33  34
ATOM     34  NE  ARG     6      54.100  39.325  52.586  1.00  0.00    -0.212 N 
ATOM     35  CZ  ARG     6      52.896  39.083  52.062  1.00  0.00     0.666 C 
ATOM     36  NH1 ARG     6      51.782  39.235  52.768  1.00  0.00    -0.235 N 
ATOM     37  NH2 ARG     6      52.786  38.653  50.813  1.00  0.00    -0.235 N 
ATOM     38 2HH1 ARG     6      51.850  39.532  53.717  1.00 99.99     0.174 HD
ATOM     39 1HH1 ARG     6      50.891  39.050  52.355  1.00 99.99     0.174 HD
ATOM     40 1HH2 ARG     6      51.879  38.478  50.436  1.00 99.99     0.174 HD
ATOM     41 2HH2 ARG     6      53.598  38.500  50.257  1.00 99.99     0.174 HD
ATOM     42  HE  ARG     6      54.910  39.196  52.016  1.00 99.99     0.178 HD
ENDBRANCH  33  34
ENDBRANCH  32  33
ENDBRANCH  31  32
ENDBRANCH  30  31
BRANCH  30  43
ATOM     43  C   ARG     6      59.058  40.998  52.957  1.00  0.00     0.251 C 
ATOM     44  N   VAL     7      59.831  41.507  52.011  1.00  0.00    -0.336 N 
ATOM     45  H   VAL     7      59.418  42.026  51.261  1.00 99.99     0.164 HD
ATOM     46  O   ARG     6      59.384  40.106  53.740  1.00  0.00    -0.271 OA
BRANCH  44  47
ATOM     47  CA  VAL     7      61.309  41.436  51.943  1.00  0.00     0.168 C 
BRANCH  47  48
ATOM     48  CB  VAL     7      61.841  41.508  50.490  1.00  0.00     0.031 C 
ATOM     49  CG1 VAL     7      63.345  41.224  50.432  1.00  0.00     0.003 C 
ATOM     50  CG2 VAL     7      61.119  40.575  49.505  1.00  0.00     0.003 C 
ENDBRANCH  47  48
BRANCH  47  51
ATOM     51  C   VAL     7      61.894  42.592  52.779  1.00  0.00     0.206 C 
ATOM     52  O   VAL     7      62.561  42.311  53.796  1.00 99.99    -0.646 OA
ATOM     53  OXT VAL     7      61.475  43.728  52.457  1.00 99.99    -0.646 OA
ENDBRANCH  47  51
ENDBRANCH  44  47
ENDBRANCH  30  43
ENDBRANCH  27  30
ENDBRANCH  25  26
BRANCH  25  54
ATOM     54  CB  VAL     5      55.095  41.790  49.028  1.00  0.00     0.029 C 
ATOM     55  CG2 VAL     5      53.822  41.961  49.865  1.00  0.00     0.002 C 
ATOM     56  CG1 VAL     5      55.542  40.325  49.024  1.00  0.00     0.002 C 
ENDBRANCH  25  54
ENDBRANCH  23  25
ENDBRANCH  20  21
BRANCH  20  57
ATOM     57  CB  ARG     4      59.266  43.715  45.622  1.00  0.00     0.034 C 
BRANCH  57  58
ATOM     58  CG  ARG     4      60.468  43.291  44.773  1.00  0.00     0.027 C 
BRANCH  58  59
ATOM     59  CD  ARG     4      60.069  43.187  43.302  1.00  0.00     0.116 C 
BRANCH  59  60
ATOM     60  NE  ARG     4      59.912  41.766  42.935  1.00  0.00    -0.212 N 
ATOM     61  CZ  ARG     4      58.765  41.142  42.654  1.00  0.00     0.666 C 
ATOM     62  NH1 ARG     4      57.593  41.767  42.689  1.00  0.00    -0.235 N 
ATOM     63  NH2 ARG     4      58.770  39.856  42.338  1.00  0.00    -0.235 N 
ATOM     64 1HH1 ARG     4      56.753  41.274  42.473  1.00 99.99     0.174 HD
ATOM     65 2HH1 ARG     4      57.569  42.732  42.935  1.00 99.99     0.174 HD
ATOM     66 2HH2 ARG     4      59.625  39.343  42.308  1.00 99.99     0.174 HD
ATOM     67 1HH2 ARG     4      57.906  39.399  42.128  1.00 99.99     0.174 HD
ATOM     68  HE  ARG     4      60.761  41.246  42.890  1.00 99.99     0.178 HD
ENDBRANCH  59  60
ENDBRANCH  58  59
ENDBRANCH  57  58
ENDBRANCH  20  57
ENDBRANCH  17  20
ENDBRANCH  15  16
BRANCH  15  69
ATOM     69  CB  ILE     3      58.290  38.199  46.994  1.00  0.00     0.029 C 
ATOM     70  CG2 ILE     3      57.157  37.448  46.280  1.00  0.00     0.002 C 
BRANCH  69  71
ATOM     71  CG1 ILE     3      59.278  37.191  47.613  1.00  0.00     0.002 C 
ATOM     72  CD  ILE     3      59.371  37.247  49.144  1.00  0.00     0.000 C 
ENDBRANCH  69  71
ENDBRANCH  15  69
ENDBRANCH  13  15
ENDBRANCH  10  11
BRANCH  10  73
ATOM     73  CB  ARG     2      63.052  38.101  46.880  1.00  0.00     0.034 C 
BRANCH  73  74
ATOM     74  CG  ARG     2      63.931  38.454  48.086  1.00  0.00     0.027 C 
BRANCH  74  75
ATOM     75  CD  ARG     2      65.294  37.770  47.954  1.00  0.00     0.116 C 
BRANCH  75  76
ATOM     76  NE  ARG     2      66.214  38.585  47.136  1.00  0.00    -0.212 N 
ATOM     77  HE  ARG     2      66.194  38.397  46.157  1.00 99.99     0.178 HD
ATOM     78  CZ  ARG     2      67.073  39.505  47.587  1.00  0.00     0.666 C 
ATOM     79  NH2 ARG     2      67.830  40.186  46.737  1.00  0.00    -0.235 N 
ATOM     80  NH1 ARG     2      67.192  39.789  48.879  1.00  0.00    -0.235 N 
ATOM     81 1HH2 ARG     2      68.466  40.872  47.089  1.00 99.99     0.174 HD
ATOM     82 2HH2 ARG     2      67.772  40.022  45.756  1.00 99.99     0.174 HD
ATOM     83 1HH1 ARG     2      67.842  40.483  49.186  1.00 99.99     0.174 HD
ATOM     84 2HH1 ARG     2      66.628  39.298  49.536  1.00 99.99     0.174 HD
ENDBRANCH  75  76
ENDBRANCH  74  75
ENDBRANCH  73  74
ENDBRANCH  10  73
ENDBRANCH   8  10
ENDBRANCH   5   6
BRANCH   5  85
ATOM     85  CB  PHE     1      63.297  43.267  47.248  1.00  0.00     0.064 C 
BRANCH  85  86
ATOM     86  CG  PHE     1      63.524  44.205  48.432  1.00  0.00    -0.044 A 
ATOM     87  CD2 PHE     1      64.810  44.505  48.871  1.00  0.00     0.008 A 
ATOM     88  CE2 PHE     1      64.996  45.456  49.866  1.00  0.00     0.001 A 
ATOM     89  CZ  PHE     1      63.902  46.096  50.430  1.00  0.00     0.000 A 
ATOM     90  CE1 PHE     1      62.617  45.778  50.011  1.00  0.00     0.001 A 
ATOM     91  CD1 PHE     1      62.426  44.825  49.017  1.00  0.00     0.008 A 
ENDBRANCH  85  86
ENDBRANCH   5  85
ENDBRANCH   1   5
TORSDOF 32
ENDMDL
