MODEL 1
REMARK VINA RESULT:      -6.2      0.000      0.000
REMARK  26 active torsions:
REMARK  status: ('A' for Active; 'I' for Inactive)
REMARK    1  A    between atoms: N_1  and  CA_2 
REMARK    2  A    between atoms: CA_2  and  C_3 
REMARK    3  A    between atoms: CA_2  and  CB_5 
REMARK       I    between atoms: C_3  and  N_12 
REMARK    4  A    between atoms: CB_5  and  OG1_6 
REMARK    5  A    between atoms: N_12  and  CA_13 
REMARK    6  A    between atoms: CA_13  and  C_14 
REMARK    7  A    between atoms: CA_13  and  CB_16 
REMARK       I    between atoms: C_14  and  N_28 
REMARK    8  A    between atoms: CB_16  and  CG_17 
REMARK    9  A    between atoms: N_28  and  CA_29 
REMARK   10  A    between atoms: CA_29  and  C_30 
REMARK   11  A    between atoms: CA_29  and  CB_32 
REMARK       I    between atoms: C_30  and  N_44 
REMARK   12  A    between atoms: CB_32  and  CG_33 
REMARK   13  A    between atoms: N_44  and  CA_45 
REMARK   14  A    between atoms: CA_45  and  C_46 
REMARK   15  A    between atoms: CA_45  and  CB_48 
REMARK       I    between atoms: C_46  and  N_61 
REMARK   16  A    between atoms: CB_48  and  CG_49 
REMARK   17  A    between atoms: CG_49  and  CD_50 
REMARK   18  A    between atoms: CD_50  and  NE_51 
REMARK       I    between atoms: NE_51  and  CZ_52 
REMARK       I    between atoms: CZ_52  and  NH1_53 
REMARK   19  A    between atoms: N_61  and  CA_62 
REMARK   20  A    between atoms: CA_62  and  C_63 
REMARK   21  A    between atoms: CA_62  and  CB_65 
REMARK       I    between atoms: C_63  and  N_77 
REMARK   22  A    between atoms: CB_65  and  CG_66 
REMARK   23  A    between atoms: N_77  and  CA_78 
REMARK   24  A    between atoms: CA_78  and  C_79 
REMARK   25  A    between atoms: CA_78  and  CB_81 
REMARK   26  A    between atoms: CB_81  and  CG_82 
ROOT
ATOM      1  N   THR     1      66.007  46.211  48.406  1.00  0.00    -0.055 N 
ATOM      2  H1  THR     1      66.130  45.899  47.471  1.00 99.99     0.276 HD
ATOM      3  H2  THR     1      65.805  47.194  48.399  1.00 99.99     0.276 HD
ATOM      4  H3  THR     1      66.829  46.131  48.936  1.00 99.99     0.276 HD
ENDROOT
BRANCH   1   5
ATOM      5  CA  THR     1      64.857  45.492  49.051  1.00  0.00     0.281 C 
BRANCH   5   6
ATOM      6  C   THR     1      64.189  44.370  48.236  1.00  0.00     0.261 C 
ATOM      7  O   THR     1      64.822  43.824  47.328  1.00  0.00    -0.270 OA
ATOM      8  N   TRP     2      62.852  44.293  48.300  1.00  0.00    -0.337 N 
ATOM      9  H   TRP     2      62.297  45.095  48.506  1.00 99.99     0.164 HD
BRANCH   8  10
ATOM     10  CA  TRP     2      62.083  43.079  47.961  1.00  0.00     0.164 C 
BRANCH  10  11
ATOM     11  C   TRP     2      61.474  43.064  46.546  1.00  0.00     0.251 C 
ATOM     12  O   TRP     2      60.264  42.855  46.434  1.00  0.00    -0.271 OA
ATOM     13  N   TRP     3      62.344  42.907  45.541  1.00  0.00    -0.337 N 
ATOM     14  H   TRP     3      63.322  42.915  45.731  1.00 99.99     0.164 HD
BRANCH  13  15
ATOM     15  CA  TRP     3      62.043  42.819  44.095  1.00  0.00     0.164 C 
BRANCH  15  16
ATOM     16  C   TRP     3      60.584  42.584  43.650  1.00  0.00     0.251 C 
ATOM     17  O   TRP     3      59.950  43.488  43.105  1.00  0.00    -0.271 OA
ATOM     18  N   ARG     4      60.128  41.334  43.735  1.00  0.00    -0.338 N 
ATOM     19  H   ARG     4      60.723  40.594  44.059  1.00 99.99     0.164 HD
BRANCH  18  20
ATOM     20  CA  ARG     4      58.769  40.899  43.358  1.00  0.00     0.159 C 
BRANCH  20  21
ATOM     21  C   ARG     4      57.921  40.403  44.548  1.00  0.00     0.251 C 
ATOM     22  O   ARG     4      56.987  39.619  44.381  1.00  0.00    -0.271 OA
ATOM     23  N   TRP     5      58.302  40.808  45.762  1.00  0.00    -0.337 N 
ATOM     24  H   TRP     5      59.067  41.446  45.870  1.00 99.99     0.164 HD
BRANCH  23  25
ATOM     25  CA  TRP     5      57.662  40.388  47.026  1.00  0.00     0.164 C 
BRANCH  25  26
ATOM     26  C   TRP     5      56.444  41.247  47.405  1.00  0.00     0.251 C 
ATOM     27  O   TRP     5      55.323  40.997  46.955  1.00  0.00    -0.271 OA
ATOM     28  N   TRP     6      56.685  42.215  48.294  1.00  0.00    -0.336 N 
ATOM     29  H   TRP     6      57.600  42.307  48.691  1.00 99.99     0.164 HD
BRANCH  28  30
ATOM     30  CA  TRP     6      55.743  43.253  48.757  1.00  0.00     0.173 C 
BRANCH  30  31
ATOM     31  C   TRP     6      56.233  44.609  48.220  1.00  0.00     0.207 C 
ATOM     32  O   TRP     6      55.651  45.650  48.594  1.00 99.99    -0.646 OA
ATOM     33  OXT TRP     6      57.170  44.548  47.389  1.00 99.99    -0.646 OA
ENDBRANCH  30  31
BRANCH  30  34
ATOM     34  CB  TRP     6      55.757  43.381  50.287  1.00  0.00     0.060 C 
BRANCH  34  35
ATOM     35  CG  TRP     6      55.845  42.052  51.042  1.00  0.00    -0.016 A 
ATOM     36  CD1 TRP     6      54.954  41.079  51.012  1.00  0.00     0.097 A 
ATOM     37  NE1 TRP     6      55.282  40.138  51.904  1.00  0.00    -0.365 N 
ATOM     38  CE2 TRP     6      56.403  40.507  52.532  1.00  0.00     0.042 A 
ATOM     39  HE1 TRP     6      54.786  39.288  52.047  1.00 99.99     0.165 HD
ATOM     40  CD2 TRP     6      56.798  41.720  51.991  1.00  0.00    -0.001 A 
ATOM     41  CZ2 TRP     6      57.142  39.950  53.570  1.00  0.00     0.030 A 
ATOM     42  CE3 TRP     6      57.928  42.371  52.459  1.00  0.00     0.014 A 
ATOM     43  CZ3 TRP     6      58.660  41.823  53.493  1.00  0.00     0.001 A 
ATOM     44  CH2 TRP     6      58.265  40.600  54.053  1.00  0.00     0.002 A 
ENDBRANCH  34  35
ENDBRANCH  30  34
ENDBRANCH  28  30
ENDBRANCH  25  26
BRANCH  25  45
ATOM     45  CB  TRP     5      58.700  40.436  48.159  1.00  0.00     0.059 C 
BRANCH  45  46
ATOM     46  CG  TRP     5      59.579  39.188  48.356  1.00  0.00    -0.016 A 
ATOM     47  CD1 TRP     5      60.011  38.314  47.451  1.00  0.00     0.097 A 
ATOM     48  NE1 TRP     5      60.600  37.278  48.057  1.00  0.00    -0.365 N 
ATOM     49  HE1 TRP     5      60.943  36.463  47.597  1.00 99.99     0.165 HD
ATOM     50  CE2 TRP     5      60.574  37.474  49.377  1.00  0.00     0.042 A 
ATOM     51  CZ2 TRP     5      61.032  36.732  50.456  1.00  0.00     0.030 A 
ATOM     52  CD2 TRP     5      59.931  38.682  49.599  1.00  0.00    -0.001 A 
ATOM     53  CH2 TRP     5      60.851  37.199  51.752  1.00  0.00     0.002 A 
ATOM     54  CZ3 TRP     5      60.208  38.416  51.971  1.00  0.00     0.001 A 
ATOM     55  CE3 TRP     5      59.746  39.149  50.887  1.00  0.00     0.014 A 
ENDBRANCH  45  46
ENDBRANCH  25  45
ENDBRANCH  23  25
ENDBRANCH  20  21
BRANCH  20  56
ATOM     56  CB  ARG     4      58.943  39.804  42.295  1.00  0.00     0.034 C 
BRANCH  56  57
ATOM     57  CG  ARG     4      58.365  40.186  40.928  1.00  0.00     0.027 C 
BRANCH  57  58
ATOM     58  CD  ARG     4      58.040  41.678  40.834  1.00  0.00     0.116 C 
BRANCH  58  59
ATOM     59  NE  ARG     4      58.472  42.242  39.542  1.00  0.00    -0.212 N 
ATOM     60  CZ  ARG     4      58.942  43.478  39.327  1.00  0.00     0.666 C 
ATOM     61  NH2 ARG     4      59.103  43.913  38.087  1.00  0.00    -0.235 N 
ATOM     62  NH1 ARG     4      59.128  44.345  40.315  1.00  0.00    -0.235 N 
ATOM     63 2HH2 ARG     4      58.863  43.332  37.313  1.00 99.99     0.174 HD
ATOM     64 1HH2 ARG     4      59.446  44.839  37.935  1.00 99.99     0.174 HD
ATOM     65 2HH1 ARG     4      58.925  44.059  41.251  1.00 99.99     0.174 HD
ATOM     66 1HH1 ARG     4      59.480  45.259  40.132  1.00 99.99     0.174 HD
ATOM     67  HE  ARG     4      58.442  41.607  38.775  1.00 99.99     0.178 HD
ENDBRANCH  58  59
ENDBRANCH  57  58
ENDBRANCH  56  57
ENDBRANCH  20  56
ENDBRANCH  18  20
ENDBRANCH  15  16
BRANCH  15  68
ATOM     68  CB  TRP     3      62.939  41.725  43.488  1.00  0.00     0.059 C 
BRANCH  68  69
ATOM     69  CG  TRP     3      64.188  41.389  44.318  1.00  0.00    -0.016 A 
ATOM     70  CD2 TRP     3      64.283  40.382  45.270  1.00  0.00    -0.001 A 
ATOM     71  CE3 TRP     3      63.355  39.489  45.784  1.00  0.00     0.014 A 
ATOM     72  CE2 TRP     3      65.609  40.308  45.651  1.00  0.00     0.042 A 
ATOM     73  CZ3 TRP     3      63.754  38.514  46.688  1.00  0.00     0.001 A 
ATOM     74  CH2 TRP     3      65.085  38.442  47.082  1.00  0.00     0.002 A 
ATOM     75  CZ2 TRP     3      66.014  39.339  46.565  1.00  0.00     0.030 A 
ATOM     76  NE1 TRP     3      66.272  41.230  44.947  1.00  0.00    -0.365 N 
ATOM     77  CD1 TRP     3      65.411  41.879  44.154  1.00  0.00     0.097 A 
ATOM     78  HE1 TRP     3      67.258  41.370  44.961  1.00 99.99     0.165 HD
ENDBRANCH  68  69
ENDBRANCH  15  68
ENDBRANCH  13  15
ENDBRANCH  10  11
BRANCH  10  79
ATOM     79  CB  TRP     2      61.069  42.828  49.093  1.00  0.00     0.059 C 
BRANCH  79  80
ATOM     80  CG  TRP     2      61.738  42.442  50.416  1.00  0.00    -0.016 A 
ATOM     81  CD2 TRP     2      62.549  41.338  50.659  1.00  0.00    -0.001 A 
ATOM     82  CE3 TRP     2      63.054  40.321  49.866  1.00  0.00     0.014 A 
ATOM     83  CE2 TRP     2      62.765  41.325  52.032  1.00  0.00     0.042 A 
ATOM     84  CZ3 TRP     2      63.754  39.273  50.440  1.00  0.00     0.001 A 
ATOM     85  CH2 TRP     2      63.981  39.256  51.816  1.00  0.00     0.002 A 
ATOM     86  CZ2 TRP     2      63.485  40.288  52.609  1.00  0.00     0.030 A 
ATOM     87  NE1 TRP     2      62.130  42.372  52.555  1.00  0.00    -0.365 N 
ATOM     88  HE1 TRP     2      62.068  42.593  53.523  1.00 99.99     0.165 HD
ATOM     89  CD1 TRP     2      61.524  43.047  51.571  1.00  0.00     0.097 A 
ENDBRANCH  79  80
ENDBRANCH  10  79
ENDBRANCH   8  10
ENDBRANCH   5   6
BRANCH   5  90
ATOM     90  CB  THR     1      63.748  46.492  49.417  1.00  0.00     0.148 C 
ATOM     91  CG2 THR     1      63.327  46.381  50.885  1.00  0.00     0.034 C 
BRANCH  90  92
ATOM     92  OG1 THR     1      64.157  47.820  49.060  1.00  0.00    -0.382 OA
ATOM     93  HG1 THR     1      63.999  48.461  49.813  1.00 99.99     0.210 HD
ENDBRANCH  90  92
ENDBRANCH   5  90
ENDBRANCH   1   5
TORSDOF 26
ENDMDL
MODEL 2
REMARK VINA RESULT:      -6.0      2.668      9.390
REMARK  26 active torsions:
REMARK  status: ('A' for Active; 'I' for Inactive)
REMARK    1  A    between atoms: N_1  and  CA_2 
REMARK    2  A    between atoms: CA_2  and  C_3 
REMARK    3  A    between atoms: CA_2  and  CB_5 
REMARK       I    between atoms: C_3  and  N_12 
REMARK    4  A    between atoms: CB_5  and  OG1_6 
REMARK    5  A    between atoms: N_12  and  CA_13 
REMARK    6  A    between atoms: CA_13  and  C_14 
REMARK    7  A    between atoms: CA_13  and  CB_16 
REMARK       I    between atoms: C_14  and  N_28 
REMARK    8  A    between atoms: CB_16  and  CG_17 
REMARK    9  A    between atoms: N_28  and  CA_29 
REMARK   10  A    between atoms: CA_29  and  C_30 
REMARK   11  A    between atoms: CA_29  and  CB_32 
REMARK       I    between atoms: C_30  and  N_44 
REMARK   12  A    between atoms: CB_32  and  CG_33 
REMARK   13  A    between atoms: N_44  and  CA_45 
REMARK   14  A    between atoms: CA_45  and  C_46 
REMARK   15  A    between atoms: CA_45  and  CB_48 
REMARK       I    between atoms: C_46  and  N_61 
REMARK   16  A    between atoms: CB_48  and  CG_49 
REMARK   17  A    between atoms: CG_49  and  CD_50 
REMARK   18  A    between atoms: CD_50  and  NE_51 
REMARK       I    between atoms: NE_51  and  CZ_52 
REMARK       I    between atoms: CZ_52  and  NH1_53 
REMARK   19  A    between atoms: N_61  and  CA_62 
REMARK   20  A    between atoms: CA_62  and  C_63 
REMARK   21  A    between atoms: CA_62  and  CB_65 
REMARK       I    between atoms: C_63  and  N_77 
REMARK   22  A    between atoms: CB_65  and  CG_66 
REMARK   23  A    between atoms: N_77  and  CA_78 
REMARK   24  A    between atoms: CA_78  and  C_79 
REMARK   25  A    between atoms: CA_78  and  CB_81 
REMARK   26  A    between atoms: CB_81  and  CG_82 
ROOT
ATOM      1  N   THR     1      59.168  43.577  41.508  1.00  0.00    -0.055 N 
ATOM      2  H1  THR     1      58.477  43.935  40.891  1.00 99.99     0.276 HD
ATOM      3  H2  THR     1      59.119  44.074  42.379  1.00 99.99     0.276 HD
ATOM      4  H3  THR     1      60.079  43.740  41.182  1.00 99.99     0.276 HD
ENDROOT
BRANCH   1   5
ATOM      5  CA  THR     1      58.927  42.119  41.777  1.00  0.00     0.281 C 
BRANCH   5   6
ATOM      6  C   THR     1      58.525  41.731  43.211  1.00  0.00     0.261 C 
ATOM      7  O   THR     1      57.689  40.841  43.385  1.00  0.00    -0.270 OA
ATOM      8  N   TRP     2      58.814  42.615  44.178  1.00  0.00    -0.337 N 
ATOM      9  H   TRP     2      58.904  43.587  43.979  1.00 99.99     0.164 HD
BRANCH   8  10
ATOM     10  CA  TRP     2      58.907  42.264  45.609  1.00  0.00     0.164 C 
BRANCH  10  11
ATOM     11  C   TRP     2      57.736  42.758  46.481  1.00  0.00     0.251 C 
ATOM     12  O   TRP     2      57.617  43.972  46.664  1.00  0.00    -0.271 OA
ATOM     13  N   TRP     3      57.168  41.836  47.266  1.00  0.00    -0.337 N 
ATOM     14  H   TRP     3      57.440  40.882  47.182  1.00 99.99     0.164 HD
BRANCH  13  15
ATOM     15  CA  TRP     3      56.059  42.030  48.227  1.00  0.00     0.164 C 
BRANCH  15  16
ATOM     16  C   TRP     3      56.322  42.839  49.516  1.00  0.00     0.251 C 
ATOM     17  O   TRP     3      55.889  43.986  49.624  1.00  0.00    -0.271 OA
ATOM     18  N   ARG     4      56.879  42.179  50.531  1.00  0.00    -0.338 N 
ATOM     19  H   ARG     4      57.094  41.202  50.449  1.00 99.99     0.164 HD
BRANCH  18  20
ATOM     20  CA  ARG     4      57.207  42.764  51.845  1.00  0.00     0.159 C 
BRANCH  20  21
ATOM     21  C   ARG     4      58.642  42.455  52.324  1.00  0.00     0.251 C 
ATOM     22  O   ARG     4      58.926  42.452  53.522  1.00  0.00    -0.271 OA
ATOM     23  N   TRP     5      59.526  42.119  51.382  1.00  0.00    -0.337 N 
ATOM     24  H   TRP     5      59.268  42.128  50.414  1.00 99.99     0.164 HD
BRANCH  23  25
ATOM     25  CA  TRP     5      60.924  41.724  51.647  1.00  0.00     0.164 C 
BRANCH  25  26
ATOM     26  C   TRP     5      61.895  42.916  51.692  1.00  0.00     0.251 C 
ATOM     27  O   TRP     5      62.223  43.430  52.764  1.00  0.00    -0.271 OA
ATOM     28  N   TRP     6      62.393  43.290  50.509  1.00  0.00    -0.336 N 
ATOM     29  H   TRP     6      62.157  42.771  49.686  1.00 99.99     0.164 HD
BRANCH  28  30
ATOM     30  CA  TRP     6      63.253  44.458  50.235  1.00  0.00     0.173 C 
BRANCH  30  31
ATOM     31  C   TRP     6      62.429  45.727  50.516  1.00  0.00     0.207 C 
ATOM     32  O   TRP     6      61.750  46.220  49.591  1.00 99.99    -0.646 OA
ATOM     33  OXT TRP     6      62.554  46.199  51.671  1.00 99.99    -0.646 OA
ENDBRANCH  30  31
BRANCH  30  34
ATOM     34  CB  TRP     6      63.640  44.532  48.751  1.00  0.00     0.060 C 
BRANCH  34  35
ATOM     35  CG  TRP     6      65.122  44.280  48.460  1.00  0.00    -0.016 A 
ATOM     36  CD1 TRP     6      66.008  45.188  48.097  1.00  0.00     0.097 A 
ATOM     37  NE1 TRP     6      67.163  44.589  47.784  1.00  0.00    -0.365 N 
ATOM     38  CE2 TRP     6      67.026  43.269  47.938  1.00  0.00     0.042 A 
ATOM     39  HE1 TRP     6      67.997  45.061  47.512  1.00 99.99     0.165 HD
ATOM     40  CD2 TRP     6      65.734  43.040  48.387  1.00  0.00    -0.001 A 
ATOM     41  CZ2 TRP     6      67.868  42.188  47.704  1.00  0.00     0.030 A 
ATOM     42  CE3 TRP     6      65.283  41.751  48.621  1.00  0.00     0.014 A 
ATOM     43  CZ3 TRP     6      66.115  40.676  48.383  1.00  0.00     0.001 A 
ATOM     44  CH2 TRP     6      67.420  40.895  47.922  1.00  0.00     0.002 A 
ENDBRANCH  34  35
ENDBRANCH  30  34
ENDBRANCH  28  30
ENDBRANCH  25  26
BRANCH  25  45
ATOM     45  CB  TRP     5      61.381  40.727  50.569  1.00  0.00     0.059 C 
BRANCH  45  46
ATOM     46  CG  TRP     5      62.515  39.758  50.947  1.00  0.00    -0.016 A 
ATOM     47  CD1 TRP     5      63.160  39.630  52.104  1.00  0.00     0.097 A 
ATOM     48  NE1 TRP     5      64.194  38.796  51.963  1.00  0.00    -0.365 N 
ATOM     49  HE1 TRP     5      64.868  38.592  52.670  1.00 99.99     0.165 HD
ATOM     50  CE2 TRP     5      64.228  38.352  50.705  1.00  0.00     0.042 A 
ATOM     51  CZ2 TRP     5      65.073  37.486  50.027  1.00  0.00     0.030 A 
ATOM     52  CD2 TRP     5      63.172  38.946  50.032  1.00  0.00    -0.001 A 
ATOM     53  CH2 TRP     5      64.859  37.213  48.681  1.00  0.00     0.002 A 
ATOM     54  CZ3 TRP     5      63.794  37.809  48.009  1.00  0.00     0.001 A 
ATOM     55  CE3 TRP     5      62.956  38.680  48.694  1.00  0.00     0.014 A 
ENDBRANCH  45  46
ENDBRANCH  25  45
ENDBRANCH  23  25
ENDBRANCH  20  21
BRANCH  20  56
ATOM     56  CB  ARG     4      56.157  42.233  52.832  1.00  0.00     0.034 C 
BRANCH  56  57
ATOM     57  CG  ARG     4      55.724  40.793  52.543  1.00  0.00     0.027 C 
BRANCH  57  58
ATOM     58  CD  ARG     4      56.446  39.780  53.434  1.00  0.00     0.116 C 
BRANCH  58  59
ATOM     59  NE  ARG     4      56.626  40.300  54.802  1.00  0.00    -0.212 N 
ATOM     60  CZ  ARG     4      57.749  40.260  55.531  1.00  0.00     0.666 C 
ATOM     61  NH2 ARG     4      57.711  40.583  56.814  1.00  0.00    -0.235 N 
ATOM     62  NH1 ARG     4      58.886  39.773  55.050  1.00  0.00    -0.235 N 
ATOM     63 2HH2 ARG     4      56.850  40.843  57.244  1.00 99.99     0.174 HD
ATOM     64 1HH2 ARG     4      58.551  40.543  57.353  1.00 99.99     0.174 HD
ATOM     65 2HH1 ARG     4      58.908  39.441  54.108  1.00 99.99     0.174 HD
ATOM     66 1HH1 ARG     4      59.711  39.754  55.610  1.00 99.99     0.174 HD
ATOM     67  HE  ARG     4      55.830  40.761  55.184  1.00 99.99     0.178 HD
ENDBRANCH  58  59
ENDBRANCH  57  58
ENDBRANCH  56  57
ENDBRANCH  20  56
ENDBRANCH  18  20
ENDBRANCH  15  16
BRANCH  15  68
ATOM     68  CB  TRP     3      55.507  40.644  48.604  1.00  0.00     0.059 C 
BRANCH  68  69
ATOM     69  CG  TRP     3      54.008  40.626  48.947  1.00  0.00    -0.016 A 
ATOM     70  CD2 TRP     3      53.114  39.615  48.621  1.00  0.00    -0.001 A 
ATOM     71  CE3 TRP     3      53.250  38.445  47.888  1.00  0.00     0.014 A 
ATOM     72  CE2 TRP     3      51.923  39.906  49.257  1.00  0.00     0.042 A 
ATOM     73  CZ3 TRP     3      52.185  37.559  47.788  1.00  0.00     0.001 A 
ATOM     74  CH2 TRP     3      50.982  37.853  48.418  1.00  0.00     0.002 A 
ATOM     75  CZ2 TRP     3      50.849  39.027  49.153  1.00  0.00     0.030 A 
ATOM     76  NE1 TRP     3      52.109  41.040  49.939  1.00  0.00    -0.365 N 
ATOM     77  CD1 TRP     3      53.362  41.469  49.742  1.00  0.00     0.097 A 
ATOM     78  HE1 TRP     3      51.444  41.465  50.547  1.00 99.99     0.165 HD
ENDBRANCH  68  69
ENDBRANCH  15  68
ENDBRANCH  13  15
ENDBRANCH  10  11
BRANCH  10  79
ATOM     79  CB  TRP     2      60.299  42.688  46.114  1.00  0.00     0.059 C 
BRANCH  79  80
ATOM     80  CG  TRP     2      61.370  41.622  45.869  1.00  0.00    -0.016 A 
ATOM     81  CD2 TRP     2      62.710  41.830  45.555  1.00  0.00    -0.001 A 
ATOM     82  CE3 TRP     2      63.505  42.957  45.426  1.00  0.00     0.014 A 
ATOM     83  CE2 TRP     2      63.227  40.575  45.259  1.00  0.00     0.042 A 
ATOM     84  CZ3 TRP     2      64.808  42.842  44.975  1.00  0.00     0.001 A 
ATOM     85  CH2 TRP     2      65.337  41.584  44.682  1.00  0.00     0.002 A 
ATOM     86  CZ2 TRP     2      64.540  40.451  44.829  1.00  0.00     0.030 A 
ATOM     87  NE1 TRP     2      62.248  39.684  45.410  1.00  0.00    -0.365 N 
ATOM     88  HE1 TRP     2      62.311  38.710  45.220  1.00 99.99     0.165 HD
ATOM     89  CD1 TRP     2      61.135  40.324  45.789  1.00  0.00     0.097 A 
ENDBRANCH  79  80
ENDBRANCH  10  79
ENDBRANCH   8  10
ENDBRANCH   5   6
BRANCH   5  90
ATOM     90  CB  THR     1      60.184  41.303  41.434  1.00  0.00     0.148 C 
ATOM     91  CG2 THR     1      61.453  41.911  42.037  1.00  0.00     0.034 C 
BRANCH  90  92
ATOM     92  OG1 THR     1      59.991  39.935  41.820  1.00  0.00    -0.382 OA
ATOM     93  HG1 THR     1      60.406  39.311  41.156  1.00 99.99     0.210 HD
ENDBRANCH  90  92
ENDBRANCH   5  90
ENDBRANCH   1   5
TORSDOF 26
ENDMDL
MODEL 3
REMARK VINA RESULT:      -6.0      2.336      9.327
REMARK  26 active torsions:
REMARK  status: ('A' for Active; 'I' for Inactive)
REMARK    1  A    between atoms: N_1  and  CA_2 
REMARK    2  A    between atoms: CA_2  and  C_3 
REMARK    3  A    between atoms: CA_2  and  CB_5 
REMARK       I    between atoms: C_3  and  N_12 
REMARK    4  A    between atoms: CB_5  and  OG1_6 
REMARK    5  A    between atoms: N_12  and  CA_13 
REMARK    6  A    between atoms: CA_13  and  C_14 
REMARK    7  A    between atoms: CA_13  and  CB_16 
REMARK       I    between atoms: C_14  and  N_28 
REMARK    8  A    between atoms: CB_16  and  CG_17 
REMARK    9  A    between atoms: N_28  and  CA_29 
REMARK   10  A    between atoms: CA_29  and  C_30 
REMARK   11  A    between atoms: CA_29  and  CB_32 
REMARK       I    between atoms: C_30  and  N_44 
REMARK   12  A    between atoms: CB_32  and  CG_33 
REMARK   13  A    between atoms: N_44  and  CA_45 
REMARK   14  A    between atoms: CA_45  and  C_46 
REMARK   15  A    between atoms: CA_45  and  CB_48 
REMARK       I    between atoms: C_46  and  N_61 
REMARK   16  A    between atoms: CB_48  and  CG_49 
REMARK   17  A    between atoms: CG_49  and  CD_50 
REMARK   18  A    between atoms: CD_50  and  NE_51 
REMARK       I    between atoms: NE_51  and  CZ_52 
REMARK       I    between atoms: CZ_52  and  NH1_53 
REMARK   19  A    between atoms: N_61  and  CA_62 
REMARK   20  A    between atoms: CA_62  and  C_63 
REMARK   21  A    between atoms: CA_62  and  CB_65 
REMARK       I    between atoms: C_63  and  N_77 
REMARK   22  A    between atoms: CB_65  and  CG_66 
REMARK   23  A    between atoms: N_77  and  CA_78 
REMARK   24  A    between atoms: CA_78  and  C_79 
REMARK   25  A    between atoms: CA_78  and  CB_81 
REMARK   26  A    between atoms: CB_81  and  CG_82 
ROOT
ATOM      1  N   THR     1      54.914  39.449  44.352  1.00  0.00    -0.055 N 
ATOM      2  H1  THR     1      55.187  39.695  43.429  1.00 99.99     0.276 HD
ATOM      3  H2  THR     1      54.213  38.731  44.305  1.00 99.99     0.276 HD
ATOM      4  H3  THR     1      54.477  40.191  44.821  1.00 99.99     0.276 HD
ENDROOT
BRANCH   1   5
ATOM      5  CA  THR     1      56.089  38.919  45.123  1.00  0.00     0.281 C 
BRANCH   5   6
ATOM      6  C   THR     1      56.750  39.874  46.132  1.00  0.00     0.261 C 
ATOM      7  O   THR     1      56.916  39.503  47.297  1.00  0.00    -0.270 OA
ATOM      8  N   TRP     2      56.773  41.175  45.804  1.00  0.00    -0.337 N 
ATOM      9  H   TRP     2      56.094  41.565  45.187  1.00 99.99     0.164 HD
BRANCH   8  10
ATOM     10  CA  TRP     2      57.705  42.154  46.398  1.00  0.00     0.164 C 
BRANCH  10  11
ATOM     11  C   TRP     2      57.106  43.035  47.511  1.00  0.00     0.251 C 
ATOM     12  O   TRP     2      57.606  44.144  47.711  1.00  0.00    -0.271 OA
ATOM     13  N   TRP     3      56.346  42.398  48.410  1.00  0.00    -0.337 N 
ATOM     14  H   TRP     3      56.118  41.439  48.270  1.00 99.99     0.164 HD
BRANCH  13  15
ATOM     15  CA  TRP     3      55.677  42.977  49.596  1.00  0.00     0.164 C 
BRANCH  15  16
ATOM     16  C   TRP     3      56.350  42.827  50.978  1.00  0.00     0.251 C 
ATOM     17  O   TRP     3      55.968  43.510  51.929  1.00  0.00    -0.271 OA
ATOM     18  N   ARG     4      57.220  41.826  51.113  1.00  0.00    -0.338 N 
ATOM     19  H   ARG     4      57.404  41.203  50.348  1.00 99.99     0.164 HD
BRANCH  18  20
ATOM     20  CA  ARG     4      57.964  41.509  52.347  1.00  0.00     0.159 C 
BRANCH  20  21
ATOM     21  C   ARG     4      59.366  42.153  52.412  1.00  0.00     0.251 C 
ATOM     22  O   ARG     4      59.581  43.140  53.115  1.00  0.00    -0.271 OA
ATOM     23  N   TRP     5      60.337  41.541  51.729  1.00  0.00    -0.337 N 
ATOM     24  H   TRP     5      60.134  40.738  51.165  1.00 99.99     0.164 HD
BRANCH  23  25
ATOM     25  CA  TRP     5      61.752  41.963  51.722  1.00  0.00     0.164 C 
BRANCH  25  26
ATOM     26  C   TRP     5      62.030  43.139  50.769  1.00  0.00     0.251 C 
ATOM     27  O   TRP     5      61.202  43.481  49.921  1.00  0.00    -0.271 OA
ATOM     28  N   TRP     6      63.181  43.783  50.980  1.00  0.00    -0.336 N 
ATOM     29  H   TRP     6      63.768  43.511  51.746  1.00 99.99     0.164 HD
BRANCH  28  30
ATOM     30  CA  TRP     6      63.758  44.868  50.162  1.00  0.00     0.173 C 
BRANCH  30  31
ATOM     31  C   TRP     6      62.932  46.141  50.415  1.00  0.00     0.207 C 
ATOM     32  O   TRP     6      62.511  46.364  51.571  1.00 99.99    -0.646 OA
ATOM     33  OXT TRP     6      62.704  46.841  49.400  1.00 99.99    -0.646 OA
ENDBRANCH  30  31
BRANCH  30  34
ATOM     34  CB  TRP     6      63.618  44.572  48.661  1.00  0.00     0.060 C 
BRANCH  34  35
ATOM     35  CG  TRP     6      64.880  44.015  47.996  1.00  0.00    -0.016 A 
ATOM     36  CD1 TRP     6      66.116  44.149  48.437  1.00  0.00     0.097 A 
ATOM     37  NE1 TRP     6      66.973  43.667  47.531  1.00  0.00    -0.365 N 
ATOM     38  CE2 TRP     6      66.285  43.217  46.477  1.00  0.00     0.042 A 
ATOM     39  HE1 TRP     6      67.961  43.623  47.644  1.00 99.99     0.165 HD
ATOM     40  CD2 TRP     6      64.940  43.410  46.752  1.00  0.00    -0.001 A 
ATOM     41  CZ2 TRP     6      66.661  42.679  45.251  1.00  0.00     0.030 A 
ATOM     42  CE3 TRP     6      63.970  43.056  45.828  1.00  0.00     0.014 A 
ATOM     43  CZ3 TRP     6      64.341  42.528  44.607  1.00  0.00     0.001 A 
ATOM     44  CH2 TRP     6      65.698  42.336  44.316  1.00  0.00     0.002 A 
ENDBRANCH  34  35
ENDBRANCH  30  34
ENDBRANCH  28  30
ENDBRANCH  25  26
BRANCH  25  45
ATOM     45  CB  TRP     5      62.635  40.766  51.335  1.00  0.00     0.059 C 
BRANCH  45  46
ATOM     46  CG  TRP     5      62.707  40.403  49.841  1.00  0.00    -0.016 A 
ATOM     47  CD1 TRP     5      61.730  40.022  49.022  1.00  0.00     0.097 A 
ATOM     48  NE1 TRP     5      62.240  39.629  47.851  1.00  0.00    -0.365 N 
ATOM     49  HE1 TRP     5      61.716  39.237  47.098  1.00 99.99     0.165 HD
ATOM     50  CE2 TRP     5      63.567  39.766  47.886  1.00  0.00     0.042 A 
ATOM     51  CZ2 TRP     5      64.572  39.512  46.964  1.00  0.00     0.030 A 
ATOM     52  CD2 TRP     5      63.896  40.257  49.140  1.00  0.00    -0.001 A 
ATOM     53  CH2 TRP     5      65.901  39.751  47.295  1.00  0.00     0.002 A 
ATOM     54  CZ3 TRP     5      66.226  40.248  48.555  1.00  0.00     0.001 A 
ATOM     55  CE3 TRP     5      65.215  40.494  49.475  1.00  0.00     0.014 A 
ENDBRANCH  45  46
ENDBRANCH  25  45
ENDBRANCH  23  25
ENDBRANCH  20  21
BRANCH  20  56
ATOM     56  CB  ARG     4      58.045  39.977  52.425  1.00  0.00     0.034 C 
BRANCH  56  57
ATOM     57  CG  ARG     4      57.697  39.282  51.105  1.00  0.00     0.027 C 
BRANCH  57  58
ATOM     58  CD  ARG     4      58.817  38.355  50.627  1.00  0.00     0.116 C 
BRANCH  58  59
ATOM     59  NE  ARG     4      58.753  38.141  49.169  1.00  0.00    -0.212 N 
ATOM     60  CZ  ARG     4      58.648  36.964  48.538  1.00  0.00     0.666 C 
ATOM     61  NH2 ARG     4      58.803  36.907  47.224  1.00  0.00    -0.235 N 
ATOM     62  NH1 ARG     4      58.529  35.818  49.196  1.00  0.00    -0.235 N 
ATOM     63 2HH2 ARG     4      59.010  37.733  46.704  1.00 99.99     0.174 HD
ATOM     64 1HH2 ARG     4      58.730  36.025  46.762  1.00 99.99     0.174 HD
ATOM     65 2HH1 ARG     4      58.501  35.836  50.195  1.00 99.99     0.174 HD
ATOM     66 1HH1 ARG     4      58.450  34.953  48.706  1.00 99.99     0.174 HD
ATOM     67  HE  ARG     4      58.745  38.973  48.623  1.00 99.99     0.178 HD
ENDBRANCH  58  59
ENDBRANCH  57  58
ENDBRANCH  56  57
ENDBRANCH  20  56
ENDBRANCH  18  20
ENDBRANCH  15  16
BRANCH  15  68
ATOM     68  CB  TRP     3      54.250  42.407  49.665  1.00  0.00     0.059 C 
BRANCH  68  69
ATOM     69  CG  TRP     3      54.144  40.911  49.328  1.00  0.00    -0.016 A 
ATOM     70  CD2 TRP     3      54.129  39.871  50.248  1.00  0.00    -0.001 A 
ATOM     71  CE3 TRP     3      54.268  39.840  51.628  1.00  0.00     0.014 A 
ATOM     72  CE2 TRP     3      53.851  38.713  49.548  1.00  0.00     0.042 A 
ATOM     73  CZ3 TRP     3      54.129  38.641  52.315  1.00  0.00     0.001 A 
ATOM     74  CH2 TRP     3      53.858  37.472  51.613  1.00  0.00     0.002 A 
ATOM     75  CZ2 TRP     3      53.719  37.506  50.229  1.00  0.00     0.030 A 
ATOM     76  NE1 TRP     3      53.698  39.057  48.266  1.00  0.00    -0.365 N 
ATOM     77  CD1 TRP     3      53.883  40.377  48.141  1.00  0.00     0.097 A 
ATOM     78  HE1 TRP     3      53.429  38.441  47.531  1.00 99.99     0.165 HD
ENDBRANCH  68  69
ENDBRANCH  15  68
ENDBRANCH  13  15
ENDBRANCH  10  11
BRANCH  10  79
ATOM     79  CB  TRP     2      58.364  42.940  45.250  1.00  0.00     0.059 C 
BRANCH  79  80
ATOM     80  CG  TRP     2      59.589  42.228  44.668  1.00  0.00    -0.016 A 
ATOM     81  CD2 TRP     2      60.023  42.243  43.346  1.00  0.00    -0.001 A 
ATOM     82  CE3 TRP     2      59.595  42.892  42.199  1.00  0.00     0.014 A 
ATOM     83  CE2 TRP     2      61.058  41.319  43.278  1.00  0.00     0.042 A 
ATOM     84  CZ3 TRP     2      60.177  42.603  40.977  1.00  0.00     0.001 A 
ATOM     85  CH2 TRP     2      61.222  41.680  40.902  1.00  0.00     0.002 A 
ATOM     86  CZ2 TRP     2      61.661  41.042  42.059  1.00  0.00     0.030 A 
ATOM     87  NE1 TRP     2      61.229  40.808  44.496  1.00  0.00    -0.365 N 
ATOM     88  HE1 TRP     2      61.868  40.086  44.742  1.00 99.99     0.165 HD
ATOM     89  CD1 TRP     2      60.346  41.371  45.330  1.00  0.00     0.097 A 
ENDBRANCH  79  80
ENDBRANCH  10  79
ENDBRANCH   8  10
ENDBRANCH   5   6
BRANCH   5  90
ATOM     90  CB  THR     1      57.194  38.463  44.156  1.00  0.00     0.148 C 
ATOM     91  CG2 THR     1      57.005  39.034  42.748  1.00  0.00     0.034 C 
BRANCH  90  92
ATOM     92  OG1 THR     1      58.480  38.778  44.709  1.00  0.00    -0.382 OA
ATOM     93  HG1 THR     1      59.016  37.948  44.869  1.00 99.99     0.210 HD
ENDBRANCH  90  92
ENDBRANCH   5  90
ENDBRANCH   1   5
TORSDOF 26
ENDMDL
MODEL 4
REMARK VINA RESULT:      -5.7      2.507      9.095
REMARK  26 active torsions:
REMARK  status: ('A' for Active; 'I' for Inactive)
REMARK    1  A    between atoms: N_1  and  CA_2 
REMARK    2  A    between atoms: CA_2  and  C_3 
REMARK    3  A    between atoms: CA_2  and  CB_5 
REMARK       I    between atoms: C_3  and  N_12 
REMARK    4  A    between atoms: CB_5  and  OG1_6 
REMARK    5  A    between atoms: N_12  and  CA_13 
REMARK    6  A    between atoms: CA_13  and  C_14 
REMARK    7  A    between atoms: CA_13  and  CB_16 
REMARK       I    between atoms: C_14  and  N_28 
REMARK    8  A    between atoms: CB_16  and  CG_17 
REMARK    9  A    between atoms: N_28  and  CA_29 
REMARK   10  A    between atoms: CA_29  and  C_30 
REMARK   11  A    between atoms: CA_29  and  CB_32 
REMARK       I    between atoms: C_30  and  N_44 
REMARK   12  A    between atoms: CB_32  and  CG_33 
REMARK   13  A    between atoms: N_44  and  CA_45 
REMARK   14  A    between atoms: CA_45  and  C_46 
REMARK   15  A    between atoms: CA_45  and  CB_48 
REMARK       I    between atoms: C_46  and  N_61 
REMARK   16  A    between atoms: CB_48  and  CG_49 
REMARK   17  A    between atoms: CG_49  and  CD_50 
REMARK   18  A    between atoms: CD_50  and  NE_51 
REMARK       I    between atoms: NE_51  and  CZ_52 
REMARK       I    between atoms: CZ_52  and  NH1_53 
REMARK   19  A    between atoms: N_61  and  CA_62 
REMARK   20  A    between atoms: CA_62  and  C_63 
REMARK   21  A    between atoms: CA_62  and  CB_65 
REMARK       I    between atoms: C_63  and  N_77 
REMARK   22  A    between atoms: CB_65  and  CG_66 
REMARK   23  A    between atoms: N_77  and  CA_78 
REMARK   24  A    between atoms: CA_78  and  C_79 
REMARK   25  A    between atoms: CA_78  and  CB_81 
REMARK   26  A    between atoms: CB_81  and  CG_82 
ROOT
ATOM      1  N   THR     1      55.819  39.799  44.150  1.00  0.00    -0.055 N 
ATOM      2  H1  THR     1      55.967  40.027  43.195  1.00 99.99     0.276 HD
ATOM      3  H2  THR     1      55.239  38.982  44.204  1.00 99.99     0.276 HD
ATOM      4  H3  THR     1      55.313  40.493  44.625  1.00 99.99     0.276 HD
ENDROOT
BRANCH   1   5
ATOM      5  CA  THR     1      57.126  39.501  44.827  1.00  0.00     0.281 C 
BRANCH   5   6
ATOM      6  C   THR     1      57.585  40.484  45.919  1.00  0.00     0.261 C 
ATOM      7  O   THR     1      57.888  40.051  47.034  1.00  0.00    -0.270 OA
ATOM      8  N   TRP     2      57.283  41.777  45.732  1.00  0.00    -0.337 N 
ATOM      9  H   TRP     2      56.503  42.050  45.175  1.00 99.99     0.164 HD
BRANCH   8  10
ATOM     10  CA  TRP     2      57.980  42.889  46.409  1.00  0.00     0.164 C 
BRANCH  10  11
ATOM     11  C   TRP     2      57.209  43.528  47.580  1.00  0.00     0.251 C 
ATOM     12  O   TRP     2      57.502  44.679  47.913  1.00  0.00    -0.271 OA
ATOM     13  N   TRP     3      56.553  42.676  48.376  1.00  0.00    -0.337 N 
ATOM     14  H   TRP     3      56.500  41.713  48.130  1.00 99.99     0.164 HD
BRANCH  13  15
ATOM     15  CA  TRP     3      55.765  43.000  49.587  1.00  0.00     0.164 C 
BRANCH  15  16
ATOM     16  C   TRP     3      56.381  42.715  50.974  1.00  0.00     0.251 C 
ATOM     17  O   TRP     3      55.883  43.212  51.985  1.00  0.00    -0.271 OA
ATOM     18  N   ARG     4      57.344  41.794  51.023  1.00  0.00    -0.338 N 
ATOM     19  H   ARG     4      57.630  41.310  50.192  1.00 99.99     0.164 HD
BRANCH  18  20
ATOM     20  CA  ARG     4      58.055  41.374  52.245  1.00  0.00     0.159 C 
BRANCH  20  21
ATOM     21  C   ARG     4      59.277  42.253  52.588  1.00  0.00     0.251 C 
ATOM     22  O   ARG     4      59.162  43.254  53.296  1.00  0.00    -0.271 OA
ATOM     23  N   TRP     5      60.462  41.829  52.143  1.00  0.00    -0.337 N 
ATOM     24  H   TRP     5      60.527  41.009  51.569  1.00 99.99     0.164 HD
BRANCH  23  25
ATOM     25  CA  TRP     5      61.750  42.493  52.423  1.00  0.00     0.164 C 
BRANCH  25  26
ATOM     26  C   TRP     5      62.411  43.094  51.170  1.00  0.00     0.251 C 
ATOM     27  O   TRP     5      62.369  42.507  50.086  1.00  0.00    -0.271 OA
ATOM     28  N   TRP     6      62.954  44.303  51.337  1.00  0.00    -0.336 N 
ATOM     29  H   TRP     6      62.872  44.765  52.222  1.00 99.99     0.164 HD
BRANCH  28  30
ATOM     30  CA  TRP     6      63.743  45.067  50.351  1.00  0.00     0.173 C 
BRANCH  30  31
ATOM     31  C   TRP     6      62.977  46.364  50.036  1.00  0.00     0.207 C 
ATOM     32  O   TRP     6      63.308  47.029  49.031  1.00 99.99    -0.646 OA
ATOM     33  OXT TRP     6      62.092  46.678  50.868  1.00 99.99    -0.646 OA
ENDBRANCH  30  31
BRANCH  30  34
ATOM     34  CB  TRP     6      63.854  44.315  49.017  1.00  0.00     0.060 C 
BRANCH  34  35
ATOM     35  CG  TRP     6      65.286  44.079  48.529  1.00  0.00    -0.016 A 
ATOM     36  CD1 TRP     6      66.070  44.974  47.958  1.00  0.00     0.097 A 
ATOM     37  NE1 TRP     6      67.190  44.383  47.528  1.00  0.00    -0.365 N 
ATOM     38  CE2 TRP     6      67.133  43.079  47.817  1.00  0.00     0.042 A 
ATOM     39  HE1 TRP     6      67.954  44.851  47.094  1.00 99.99     0.165 HD
ATOM     40  CD2 TRP     6      65.932  42.856  48.474  1.00  0.00    -0.001 A 
ATOM     41  CZ2 TRP     6      67.976  42.005  47.554  1.00  0.00     0.030 A 
ATOM     42  CE3 TRP     6      65.576  41.582  48.886  1.00  0.00     0.014 A 
ATOM     43  CZ3 TRP     6      66.408  40.513  48.620  1.00  0.00     0.001 A 
ATOM     44  CH2 TRP     6      67.621  40.726  47.950  1.00  0.00     0.002 A 
ENDBRANCH  34  35
ENDBRANCH  30  34
ENDBRANCH  28  30
ENDBRANCH  25  26
BRANCH  25  45
ATOM     45  CB  TRP     5      62.708  41.484  53.077  1.00  0.00     0.059 C 
BRANCH  45  46
ATOM     46  CG  TRP     5      62.653  41.358  54.610  1.00  0.00    -0.016 A 
ATOM     47  CD1 TRP     5      63.455  41.896  55.525  1.00  0.00     0.097 A 
ATOM     48  NE1 TRP     5      63.172  41.397  56.733  1.00  0.00    -0.365 N 
ATOM     49  HE1 TRP     5      63.679  41.593  57.568  1.00 99.99     0.165 HD
ATOM     50  CE2 TRP     5      62.162  40.532  56.621  1.00  0.00     0.042 A 
ATOM     51  CZ2 TRP     5      61.483  39.743  57.538  1.00  0.00     0.030 A 
ATOM     52  CD2 TRP     5      61.809  40.485  55.281  1.00  0.00    -0.001 A 
ATOM     53  CH2 TRP     5      60.452  38.911  57.115  1.00  0.00     0.002 A 
ATOM     54  CZ3 TRP     5      60.098  38.870  55.768  1.00  0.00     0.001 A 
ATOM     55  CE3 TRP     5      60.787  39.658  54.856  1.00  0.00     0.014 A 
ENDBRANCH  45  46
ENDBRANCH  25  45
ENDBRANCH  23  25
ENDBRANCH  20  21
BRANCH  20  56
ATOM     56  CB  ARG     4      58.459  39.907  52.031  1.00  0.00     0.034 C 
BRANCH  56  57
ATOM     57  CG  ARG     4      57.944  39.321  50.713  1.00  0.00     0.027 C 
BRANCH  57  58
ATOM     58  CD  ARG     4      58.972  38.405  50.046  1.00  0.00     0.116 C 
BRANCH  58  59
ATOM     59  NE  ARG     4      60.337  38.949  50.166  1.00  0.00    -0.212 N 
ATOM     60  CZ  ARG     4      61.099  39.423  49.171  1.00  0.00     0.666 C 
ATOM     61  NH2 ARG     4      62.376  39.694  49.394  1.00  0.00    -0.235 N 
ATOM     62  NH1 ARG     4      60.659  39.505  47.922  1.00  0.00    -0.235 N 
ATOM     63 2HH2 ARG     4      62.776  39.535  50.293  1.00 99.99     0.174 HD
ATOM     64 1HH2 ARG     4      62.939  40.039  48.645  1.00 99.99     0.174 HD
ATOM     65 2HH1 ARG     4      59.723  39.218  47.721  1.00 99.99     0.174 HD
ATOM     66 1HH1 ARG     4      61.243  39.861  47.197  1.00 99.99     0.174 HD
ATOM     67  HE  ARG     4      60.688  39.000  51.097  1.00 99.99     0.178 HD
ENDBRANCH  58  59
ENDBRANCH  57  58
ENDBRANCH  56  57
ENDBRANCH  20  56
ENDBRANCH  18  20
ENDBRANCH  15  16
BRANCH  15  68
ATOM     68  CB  TRP     3      54.408  42.281  49.480  1.00  0.00     0.059 C 
BRANCH  68  69
ATOM     69  CG  TRP     3      54.505  40.779  49.168  1.00  0.00    -0.016 A 
ATOM     70  CD2 TRP     3      54.440  39.751  50.100  1.00  0.00    -0.001 A 
ATOM     71  CE3 TRP     3      54.351  39.748  51.485  1.00  0.00     0.014 A 
ATOM     72  CE2 TRP     3      54.394  38.566  49.394  1.00  0.00     0.042 A 
ATOM     73  CZ3 TRP     3      54.217  38.547  52.170  1.00  0.00     0.001 A 
ATOM     74  CH2 TRP     3      54.180  37.350  51.463  1.00  0.00     0.002 A 
ATOM     75  CZ2 TRP     3      54.269  37.358  50.075  1.00  0.00     0.030 A 
ATOM     76  NE1 TRP     3      54.423  38.880  48.096  1.00  0.00    -0.365 N 
ATOM     77  CD1 TRP     3      54.497  40.211  47.969  1.00  0.00     0.097 A 
ATOM     78  HE1 TRP     3      54.340  38.234  47.342  1.00 99.99     0.165 HD
ENDBRANCH  68  69
ENDBRANCH  15  68
ENDBRANCH  13  15
ENDBRANCH  10  11
BRANCH  10  79
ATOM     79  CB  TRP     2      58.441  43.888  45.331  1.00  0.00     0.059 C 
BRANCH  79  80
ATOM     80  CG  TRP     2      59.661  43.395  44.547  1.00  0.00    -0.016 A 
ATOM     81  CD2 TRP     2      60.867  42.937  45.067  1.00  0.00    -0.001 A 
ATOM     82  CE3 TRP     2      61.341  42.717  46.349  1.00  0.00     0.014 A 
ATOM     83  CE2 TRP     2      61.711  42.774  43.975  1.00  0.00     0.042 A 
ATOM     84  CZ3 TRP     2      62.663  42.360  46.552  1.00  0.00     0.001 A 
ATOM     85  CH2 TRP     2      63.515  42.188  45.460  1.00  0.00     0.002 A 
ATOM     86  CZ2 TRP     2      63.032  42.395  44.171  1.00  0.00     0.030 A 
ATOM     87  NE1 TRP     2      61.028  43.101  42.879  1.00  0.00    -0.365 N 
ATOM     88  HE1 TRP     2      61.389  43.128  41.953  1.00 99.99     0.165 HD
ATOM     89  CD1 TRP     2      59.789  43.463  43.233  1.00  0.00     0.097 A 
ENDBRANCH  79  80
ENDBRANCH  10  79
ENDBRANCH   8  10
ENDBRANCH   5   6
BRANCH   5  90
ATOM     90  CB  THR     1      58.257  39.435  43.789  1.00  0.00     0.148 C 
ATOM     91  CG2 THR     1      57.931  40.232  42.523  1.00  0.00     0.034 C 
BRANCH  90  92
ATOM     92  OG1 THR     1      59.493  39.842  44.393  1.00  0.00    -0.382 OA
ATOM     93  HG1 THR     1      59.531  39.570  45.355  1.00 99.99     0.210 HD
ENDBRANCH  90  92
ENDBRANCH   5  90
ENDBRANCH   1   5
TORSDOF 26
ENDMDL
MODEL 5
REMARK VINA RESULT:      -5.6      3.132     10.528
REMARK  26 active torsions:
REMARK  status: ('A' for Active; 'I' for Inactive)
REMARK    1  A    between atoms: N_1  and  CA_2 
REMARK    2  A    between atoms: CA_2  and  C_3 
REMARK    3  A    between atoms: CA_2  and  CB_5 
REMARK       I    between atoms: C_3  and  N_12 
REMARK    4  A    between atoms: CB_5  and  OG1_6 
REMARK    5  A    between atoms: N_12  and  CA_13 
REMARK    6  A    between atoms: CA_13  and  C_14 
REMARK    7  A    between atoms: CA_13  and  CB_16 
REMARK       I    between atoms: C_14  and  N_28 
REMARK    8  A    between atoms: CB_16  and  CG_17 
REMARK    9  A    between atoms: N_28  and  CA_29 
REMARK   10  A    between atoms: CA_29  and  C_30 
REMARK   11  A    between atoms: CA_29  and  CB_32 
REMARK       I    between atoms: C_30  and  N_44 
REMARK   12  A    between atoms: CB_32  and  CG_33 
REMARK   13  A    between atoms: N_44  and  CA_45 
REMARK   14  A    between atoms: CA_45  and  C_46 
REMARK   15  A    between atoms: CA_45  and  CB_48 
REMARK       I    between atoms: C_46  and  N_61 
REMARK   16  A    between atoms: CB_48  and  CG_49 
REMARK   17  A    between atoms: CG_49  and  CD_50 
REMARK   18  A    between atoms: CD_50  and  NE_51 
REMARK       I    between atoms: NE_51  and  CZ_52 
REMARK       I    between atoms: CZ_52  and  NH1_53 
REMARK   19  A    between atoms: N_61  and  CA_62 
REMARK   20  A    between atoms: CA_62  and  C_63 
REMARK   21  A    between atoms: CA_62  and  CB_65 
REMARK       I    between atoms: C_63  and  N_77 
REMARK   22  A    between atoms: CB_65  and  CG_66 
REMARK   23  A    between atoms: N_77  and  CA_78 
REMARK   24  A    between atoms: CA_78  and  C_79 
REMARK   25  A    between atoms: CA_78  and  CB_81 
REMARK   26  A    between atoms: CB_81  and  CG_82 
ROOT
ATOM      1  N   THR     1      51.575  40.049  51.628  1.00  0.00    -0.055 N 
ATOM      2  H1  THR     1      50.651  39.764  51.400  1.00 99.99     0.276 HD
ATOM      3  H2  THR     1      51.654  40.132  52.625  1.00 99.99     0.276 HD
ATOM      4  H3  THR     1      51.782  40.946  51.289  1.00 99.99     0.276 HD
ENDROOT
BRANCH   1   5
ATOM      5  CA  THR     1      52.571  39.031  51.153  1.00  0.00     0.281 C 
BRANCH   5   6
ATOM      6  C   THR     1      54.050  39.458  51.136  1.00  0.00     0.261 C 
ATOM      7  O   THR     1      54.921  38.632  51.426  1.00  0.00    -0.270 OA
ATOM      8  N   TRP     2      54.297  40.775  51.173  1.00  0.00    -0.337 N 
ATOM      9  H   TRP     2      53.646  41.413  51.577  1.00 99.99     0.164 HD
BRANCH   8  10
ATOM     10  CA  TRP     2      55.573  41.383  50.742  1.00  0.00     0.164 C 
BRANCH  10  11
ATOM     11  C   TRP     2      56.394  42.045  51.865  1.00  0.00     0.251 C 
ATOM     12  O   TRP     2      56.511  43.273  51.856  1.00  0.00    -0.271 OA
ATOM     13  N   TRP     3      57.216  41.232  52.540  1.00  0.00    -0.337 N 
ATOM     14  H   TRP     3      57.187  40.251  52.370  1.00 99.99     0.164 HD
BRANCH  13  15
ATOM     15  CA  TRP     3      58.143  41.595  53.635  1.00  0.00     0.164 C 
BRANCH  15  16
ATOM     16  C   TRP     3      59.571  42.061  53.278  1.00  0.00     0.251 C 
ATOM     17  O   TRP     3      59.742  43.124  52.679  1.00  0.00    -0.271 OA
ATOM     18  N   ARG     4      60.577  41.353  53.792  1.00  0.00    -0.338 N 
ATOM     19  H   ARG     4      60.395  40.569  54.391  1.00 99.99     0.164 HD
BRANCH  18  20
ATOM     20  CA  ARG     4      62.009  41.634  53.577  1.00  0.00     0.159 C 
BRANCH  20  21
ATOM     21  C   ARG     4      62.548  41.120  52.225  1.00  0.00     0.251 C 
ATOM     22  O   ARG     4      62.991  39.977  52.109  1.00  0.00    -0.271 OA
ATOM     23  N   TRP     5      62.438  41.949  51.184  1.00  0.00    -0.337 N 
ATOM     24  H   TRP     5      62.073  42.874  51.306  1.00 99.99     0.164 HD
BRANCH  23  25
ATOM     25  CA  TRP     5      62.833  41.615  49.801  1.00  0.00     0.164 C 
BRANCH  25  26
ATOM     26  C   TRP     5      64.129  42.313  49.353  1.00  0.00     0.251 C 
ATOM     27  O   TRP     5      65.123  41.660  49.026  1.00  0.00    -0.271 OA
ATOM     28  N   TRP     6      64.063  43.646  49.282  1.00  0.00    -0.336 N 
ATOM     29  H   TRP     6      63.195  44.110  49.474  1.00 99.99     0.164 HD
BRANCH  28  30
ATOM     30  CA  TRP     6      65.170  44.577  48.992  1.00  0.00     0.173 C 
BRANCH  30  31
ATOM     31  C   TRP     6      64.961  45.840  49.847  1.00  0.00     0.207 C 
ATOM     32  O   TRP     6      65.931  46.299  50.487  1.00 99.99    -0.646 OA
ATOM     33  OXT TRP     6      63.789  46.284  49.867  1.00 99.99    -0.646 OA
ENDBRANCH  30  31
BRANCH  30  34
ATOM     34  CB  TRP     6      65.135  45.052  47.532  1.00  0.00     0.060 C 
BRANCH  34  35
ATOM     35  CG  TRP     6      65.456  43.970  46.497  1.00  0.00    -0.016 A 
ATOM     36  CD1 TRP     6      66.658  43.648  46.057  1.00  0.00     0.097 A 
ATOM     37  NE1 TRP     6      66.549  42.770  45.053  1.00  0.00    -0.365 N 
ATOM     38  CE2 TRP     6      65.255  42.521  44.830  1.00  0.00     0.042 A 
ATOM     39  HE1 TRP     6      67.315  42.348  44.577  1.00 99.99     0.165 HD
ATOM     40  CD2 TRP     6      64.530  43.263  45.750  1.00  0.00    -0.001 A 
ATOM     41  CZ2 TRP     6      64.580  41.751  43.889  1.00  0.00     0.030 A 
ATOM     42  CE3 TRP     6      63.144  43.228  45.753  1.00  0.00     0.014 A 
ATOM     43  CZ3 TRP     6      62.471  42.470  44.817  1.00  0.00     0.001 A 
ATOM     44  CH2 TRP     6      63.195  41.723  43.877  1.00  0.00     0.002 A 
ENDBRANCH  34  35
ENDBRANCH  30  34
ENDBRANCH  28  30
ENDBRANCH  25  26
BRANCH  25  45
ATOM     45  CB  TRP     5      61.689  41.989  48.844  1.00  0.00     0.059 C 
BRANCH  45  46
ATOM     46  CG  TRP     5      60.454  41.071  48.837  1.00  0.00    -0.016 A 
ATOM     47  CD1 TRP     5      59.556  40.864  49.796  1.00  0.00     0.097 A 
ATOM     48  NE1 TRP     5      58.743  39.860  49.456  1.00  0.00    -0.365 N 
ATOM     49  HE1 TRP     5      58.033  39.473  50.039  1.00 99.99     0.165 HD
ATOM     50  CE2 TRP     5      59.094  39.405  48.251  1.00  0.00     0.042 A 
ATOM     51  CZ2 TRP     5      58.601  38.395  47.438  1.00  0.00     0.030 A 
ATOM     52  CD2 TRP     5      60.180  40.156  47.830  1.00  0.00    -0.001 A 
ATOM     53  CH2 TRP     5      59.192  38.139  46.206  1.00  0.00     0.002 A 
ATOM     54  CZ3 TRP     5      60.281  38.899  45.784  1.00  0.00     0.001 A 
ATOM     55  CE3 TRP     5      60.773  39.904  46.607  1.00  0.00     0.014 A 
ENDBRANCH  45  46
ENDBRANCH  25  45
ENDBRANCH  23  25
ENDBRANCH  20  21
BRANCH  20  56
ATOM     56  CB  ARG     4      62.758  41.001  54.759  1.00  0.00     0.034 C 
BRANCH  56  57
ATOM     57  CG  ARG     4      61.837  40.583  55.909  1.00  0.00     0.027 C 
BRANCH  57  58
ATOM     58  CD  ARG     4      62.611  40.312  57.202  1.00  0.00     0.116 C 
BRANCH  58  59
ATOM     59  NE  ARG     4      63.011  38.896  57.303  1.00  0.00    -0.212 N 
ATOM     60  CZ  ARG     4      64.227  38.390  57.057  1.00  0.00     0.666 C 
ATOM     61  NH2 ARG     4      64.391  37.078  56.994  1.00  0.00    -0.235 N 
ATOM     62  NH1 ARG     4      65.260  39.159  56.734  1.00  0.00    -0.235 N 
ATOM     63 2HH2 ARG     4      63.614  36.465  57.115  1.00 99.99     0.174 HD
ATOM     64 1HH2 ARG     4      65.299  36.709  56.802  1.00 99.99     0.174 HD
ATOM     65 2HH1 ARG     4      65.128  40.149  56.690  1.00 99.99     0.174 HD
ATOM     66 1HH1 ARG     4      66.156  38.761  56.556  1.00 99.99     0.174 HD
ATOM     67  HE  ARG     4      62.300  38.281  57.630  1.00 99.99     0.178 HD
ENDBRANCH  58  59
ENDBRANCH  57  58
ENDBRANCH  56  57
ENDBRANCH  20  56
ENDBRANCH  18  20
ENDBRANCH  15  16
BRANCH  15  68
ATOM     68  CB  TRP     3      58.229  40.401  54.602  1.00  0.00     0.059 C 
BRANCH  68  69
ATOM     69  CG  TRP     3      57.704  39.075  54.027  1.00  0.00    -0.016 A 
ATOM     70  CD2 TRP     3      58.392  38.239  53.158  1.00  0.00    -0.001 A 
ATOM     71  CE3 TRP     3      59.623  38.352  52.529  1.00  0.00     0.014 A 
ATOM     72  CE2 TRP     3      57.643  37.086  53.026  1.00  0.00     0.042 A 
ATOM     73  CZ3 TRP     3      60.110  37.303  51.759  1.00  0.00     0.001 A 
ATOM     74  CH2 TRP     3      59.354  36.145  51.615  1.00  0.00     0.002 A 
ATOM     75  CZ2 TRP     3      58.120  36.035  52.247  1.00  0.00     0.030 A 
ATOM     76  NE1 TRP     3      56.559  37.232  53.793  1.00  0.00    -0.365 N 
ATOM     77  CD1 TRP     3      56.599  38.432  54.385  1.00  0.00     0.097 A 
ATOM     78  HE1 TRP     3      55.863  36.536  53.949  1.00 99.99     0.165 HD
ENDBRANCH  68  69
ENDBRANCH  15  68
ENDBRANCH  13  15
ENDBRANCH  10  11
BRANCH  10  79
ATOM     79  CB  TRP     2      55.280  42.302  49.542  1.00  0.00     0.059 C 
BRANCH  79  80
ATOM     80  CG  TRP     2      55.965  41.835  48.254  1.00  0.00    -0.016 A 
ATOM     81  CD2 TRP     2      57.031  42.443  47.599  1.00  0.00    -0.001 A 
ATOM     82  CE3 TRP     2      57.829  43.542  47.873  1.00  0.00     0.014 A 
ATOM     83  CE2 TRP     2      57.179  41.757  46.401  1.00  0.00     0.042 A 
ATOM     84  CZ3 TRP     2      58.757  43.978  46.943  1.00  0.00     0.001 A 
ATOM     85  CH2 TRP     2      58.916  43.289  45.740  1.00  0.00     0.002 A 
ATOM     86  CZ2 TRP     2      58.124  42.175  45.474  1.00  0.00     0.030 A 
ATOM     87  NE1 TRP     2      56.262  40.791  46.368  1.00  0.00    -0.365 N 
ATOM     88  HE1 TRP     2      56.097  40.168  45.610  1.00 99.99     0.165 HD
ATOM     89  CD1 TRP     2      55.542  40.839  47.495  1.00  0.00     0.097 A 
ENDBRANCH  79  80
ENDBRANCH  10  79
ENDBRANCH   8  10
ENDBRANCH   5   6
BRANCH   5  90
ATOM     90  CB  THR     1      52.225  38.579  49.726  1.00  0.00     0.148 C 
ATOM     91  CG2 THR     1      51.147  39.455  49.084  1.00  0.00     0.034 C 
BRANCH  90  92
ATOM     92  OG1 THR     1      53.422  38.512  48.937  1.00  0.00    -0.382 OA
ATOM     93  HG1 THR     1      53.416  39.202  48.212  1.00 99.99     0.210 HD
ENDBRANCH  90  92
ENDBRANCH   5  90
ENDBRANCH   1   5
TORSDOF 26
ENDMDL
MODEL 6
REMARK VINA RESULT:      -5.6      2.353      8.953
REMARK  26 active torsions:
REMARK  status: ('A' for Active; 'I' for Inactive)
REMARK    1  A    between atoms: N_1  and  CA_2 
REMARK    2  A    between atoms: CA_2  and  C_3 
REMARK    3  A    between atoms: CA_2  and  CB_5 
REMARK       I    between atoms: C_3  and  N_12 
REMARK    4  A    between atoms: CB_5  and  OG1_6 
REMARK    5  A    between atoms: N_12  and  CA_13 
REMARK    6  A    between atoms: CA_13  and  C_14 
REMARK    7  A    between atoms: CA_13  and  CB_16 
REMARK       I    between atoms: C_14  and  N_28 
REMARK    8  A    between atoms: CB_16  and  CG_17 
REMARK    9  A    between atoms: N_28  and  CA_29 
REMARK   10  A    between atoms: CA_29  and  C_30 
REMARK   11  A    between atoms: CA_29  and  CB_32 
REMARK       I    between atoms: C_30  and  N_44 
REMARK   12  A    between atoms: CB_32  and  CG_33 
REMARK   13  A    between atoms: N_44  and  CA_45 
REMARK   14  A    between atoms: CA_45  and  C_46 
REMARK   15  A    between atoms: CA_45  and  CB_48 
REMARK       I    between atoms: C_46  and  N_61 
REMARK   16  A    between atoms: CB_48  and  CG_49 
REMARK   17  A    between atoms: CG_49  and  CD_50 
REMARK   18  A    between atoms: CD_50  and  NE_51 
REMARK       I    between atoms: NE_51  and  CZ_52 
REMARK       I    between atoms: CZ_52  and  NH1_53 
REMARK   19  A    between atoms: N_61  and  CA_62 
REMARK   20  A    between atoms: CA_62  and  C_63 
REMARK   21  A    between atoms: CA_62  and  CB_65 
REMARK       I    between atoms: C_63  and  N_77 
REMARK   22  A    between atoms: CB_65  and  CG_66 
REMARK   23  A    between atoms: N_77  and  CA_78 
REMARK   24  A    between atoms: CA_78  and  C_79 
REMARK   25  A    between atoms: CA_78  and  CB_81 
REMARK   26  A    between atoms: CB_81  and  CG_82 
ROOT
ATOM      1  N   THR     1      54.951  39.482  44.456  1.00  0.00    -0.055 N 
ATOM      2  H1  THR     1      54.935  39.964  43.588  1.00 99.99     0.276 HD
ATOM      3  H2  THR     1      54.501  38.592  44.345  1.00 99.99     0.276 HD
ATOM      4  H3  THR     1      54.425  39.940  45.146  1.00 99.99     0.276 HD
ENDROOT
BRANCH   1   5
ATOM      5  CA  THR     1      56.366  39.249  44.901  1.00  0.00     0.281 C 
BRANCH   5   6
ATOM      6  C   THR     1      56.914  40.175  46.001  1.00  0.00     0.261 C 
ATOM      7  O   THR     1      57.110  39.721  47.132  1.00  0.00    -0.270 OA
ATOM      8  N   TRP     2      56.801  41.495  45.788  1.00  0.00    -0.337 N 
ATOM      9  H   TRP     2      56.090  41.864  45.197  1.00 99.99     0.164 HD
BRANCH   8  10
ATOM     10  CA  TRP     2      57.619  42.510  46.482  1.00  0.00     0.164 C 
BRANCH  10  11
ATOM     11  C   TRP     2      56.915  43.231  47.648  1.00  0.00     0.251 C 
ATOM     12  O   TRP     2      57.265  44.382  47.919  1.00  0.00    -0.271 OA
ATOM     13  N   TRP     3      56.253  42.443  48.503  1.00  0.00    -0.337 N 
ATOM     14  H   TRP     3      56.154  41.472  48.302  1.00 99.99     0.164 HD
BRANCH  13  15
ATOM     15  CA  TRP     3      55.522  42.851  49.723  1.00  0.00     0.164 C 
BRANCH  15  16
ATOM     16  C   TRP     3      56.215  42.696  51.094  1.00  0.00     0.251 C 
ATOM     17  O   TRP     3      55.782  43.299  52.077  1.00  0.00    -0.271 OA
ATOM     18  N   ARG     4      57.170  41.770  51.179  1.00  0.00    -0.338 N 
ATOM     19  H   ARG     4      57.402  41.202  50.386  1.00 99.99     0.164 HD
BRANCH  18  20
ATOM     20  CA  ARG     4      57.948  41.463  52.395  1.00  0.00     0.159 C 
BRANCH  20  21
ATOM     21  C   ARG     4      59.075  42.477  52.686  1.00  0.00     0.251 C 
ATOM     22  O   ARG     4      58.916  43.390  53.497  1.00  0.00    -0.271 OA
ATOM     23  N   TRP     5      60.242  42.265  52.073  1.00  0.00    -0.337 N 
ATOM     24  H   TRP     5      60.345  41.513  51.418  1.00 99.99     0.164 HD
BRANCH  23  25
ATOM     25  CA  TRP     5      61.456  43.082  52.274  1.00  0.00     0.164 C 
BRANCH  25  26
ATOM     26  C   TRP     5      62.042  43.633  50.962  1.00  0.00     0.251 C 
ATOM     27  O   TRP     5      61.637  43.235  49.868  1.00  0.00    -0.271 OA
ATOM     28  N   TRP     6      62.951  44.602  51.107  1.00  0.00    -0.336 N 
ATOM     29  H   TRP     6      63.169  44.944  52.024  1.00 99.99     0.164 HD
BRANCH  28  30
ATOM     30  CA  TRP     6      63.754  45.235  50.043  1.00  0.00     0.173 C 
BRANCH  30  31
ATOM     31  C   TRP     6      63.008  46.497  49.576  1.00  0.00     0.207 C 
ATOM     32  O   TRP     6      61.773  46.564  49.750  1.00 99.99    -0.646 OA
ATOM     33  OXT TRP     6      63.719  47.354  48.999  1.00 99.99    -0.646 OA
ENDBRANCH  30  31
BRANCH  30  34
ATOM     34  CB  TRP     6      63.859  44.330  48.807  1.00  0.00     0.060 C 
BRANCH  34  35
ATOM     35  CG  TRP     6      65.279  44.143  48.266  1.00  0.00    -0.016 A 
ATOM     36  CD1 TRP     6      65.970  45.029  47.573  1.00  0.00     0.097 A 
ATOM     37  NE1 TRP     6      67.108  44.474  47.140  1.00  0.00    -0.365 N 
ATOM     38  CE2 TRP     6      67.156  43.203  47.550  1.00  0.00     0.042 A 
ATOM     39  HE1 TRP     6      67.815  44.948  46.624  1.00 99.99     0.165 HD
ATOM     40  CD2 TRP     6      66.007  42.965  48.289  1.00  0.00    -0.001 A 
ATOM     41  CZ2 TRP     6      68.059  42.166  47.342  1.00  0.00     0.030 A 
ATOM     42  CE3 TRP     6      65.761  41.716  48.835  1.00  0.00     0.014 A 
ATOM     43  CZ3 TRP     6      66.653  40.684  48.624  1.00  0.00     0.001 A 
ATOM     44  CH2 TRP     6      67.814  40.911  47.872  1.00  0.00     0.002 A 
ENDBRANCH  34  35
ENDBRANCH  30  34
ENDBRANCH  28  30
ENDBRANCH  25  26
BRANCH  25  45
ATOM     45  CB  TRP     5      62.517  42.241  53.000  1.00  0.00     0.059 C 
BRANCH  45  46
ATOM     46  CG  TRP     5      62.288  40.720  53.055  1.00  0.00    -0.016 A 
ATOM     47  CD1 TRP     5      61.886  39.968  54.076  1.00  0.00     0.097 A 
ATOM     48  NE1 TRP     5      61.986  38.673  53.759  1.00  0.00    -0.365 N 
ATOM     49  HE1 TRP     5      61.808  37.914  54.381  1.00 99.99     0.165 HD
ATOM     50  CE2 TRP     5      62.444  38.564  52.510  1.00  0.00     0.042 A 
ATOM     51  CZ2 TRP     5      62.730  37.478  51.696  1.00  0.00     0.030 A 
ATOM     52  CD2 TRP     5      62.646  39.850  52.034  1.00  0.00    -0.001 A 
ATOM     53  CH2 TRP     5      63.215  37.679  50.409  1.00  0.00     0.002 A 
ATOM     54  CZ3 TRP     5      63.413  38.973  49.933  1.00  0.00     0.001 A 
ATOM     55  CE3 TRP     5      63.130  40.055  50.756  1.00  0.00     0.014 A 
ENDBRANCH  45  46
ENDBRANCH  25  45
ENDBRANCH  23  25
ENDBRANCH  20  21
BRANCH  20  56
ATOM     56  CB  ARG     4      58.503  40.043  52.209  1.00  0.00     0.034 C 
BRANCH  56  57
ATOM     57  CG  ARG     4      58.459  39.559  50.756  1.00  0.00     0.027 C 
BRANCH  57  58
ATOM     58  CD  ARG     4      59.340  38.328  50.529  1.00  0.00     0.116 C 
BRANCH  58  59
ATOM     59  NE  ARG     4      58.575  37.223  49.922  1.00  0.00    -0.212 N 
ATOM     60  CZ  ARG     4      58.500  36.926  48.618  1.00  0.00     0.666 C 
ATOM     61  NH2 ARG     4      57.619  36.032  48.198  1.00  0.00    -0.235 N 
ATOM     62  NH1 ARG     4      59.184  37.597  47.699  1.00  0.00    -0.235 N 
ATOM     63 2HH2 ARG     4      57.002  35.588  48.845  1.00 99.99     0.174 HD
ATOM     64 1HH2 ARG     4      57.563  35.822  47.223  1.00 99.99     0.174 HD
ATOM     65 2HH1 ARG     4      59.788  38.337  47.994  1.00 99.99     0.174 HD
ATOM     66 1HH1 ARG     4      59.114  37.358  46.734  1.00 99.99     0.174 HD
ATOM     67  HE  ARG     4      58.113  36.626  50.571  1.00 99.99     0.178 HD
ENDBRANCH  58  59
ENDBRANCH  57  58
ENDBRANCH  56  57
ENDBRANCH  20  56
ENDBRANCH  18  20
ENDBRANCH  15  16
BRANCH  15  68
ATOM     68  CB  TRP     3      54.179  42.099  49.748  1.00  0.00     0.059 C 
BRANCH  68  69
ATOM     69  CG  TRP     3      54.230  40.682  49.154  1.00  0.00    -0.016 A 
ATOM     70  CD2 TRP     3      54.521  39.519  49.854  1.00  0.00    -0.001 A 
ATOM     71  CE3 TRP     3      54.896  39.287  51.169  1.00  0.00     0.014 A 
ATOM     72  CE2 TRP     3      54.294  38.461  48.995  1.00  0.00     0.042 A 
ATOM     73  CZ3 TRP     3      55.047  37.985  51.630  1.00  0.00     0.001 A 
ATOM     74  CH2 TRP     3      54.829  36.918  50.766  1.00  0.00     0.002 A 
ATOM     75  CZ2 TRP     3      54.453  37.154  49.448  1.00  0.00     0.030 A 
ATOM     76  NE1 TRP     3      53.878  38.979  47.836  1.00  0.00    -0.365 N 
ATOM     77  CD1 TRP     3      53.849  40.313  47.937  1.00  0.00     0.097 A 
ATOM     78  HE1 TRP     3      53.577  38.455  47.044  1.00 99.99     0.165 HD
ENDBRANCH  68  69
ENDBRANCH  15  68
ENDBRANCH  13  15
ENDBRANCH  10  11
BRANCH  10  79
ATOM     79  CB  TRP     2      58.212  43.451  45.417  1.00  0.00     0.059 C 
BRANCH  79  80
ATOM     80  CG  TRP     2      59.650  43.087  45.037  1.00  0.00    -0.016 A 
ATOM     81  CD2 TRP     2      60.535  42.288  45.755  1.00  0.00    -0.001 A 
ATOM     82  CE3 TRP     2      60.435  41.549  46.922  1.00  0.00     0.014 A 
ATOM     83  CE2 TRP     2      61.756  42.398  45.102  1.00  0.00     0.042 A 
ATOM     84  CZ3 TRP     2      61.555  40.939  47.458  1.00  0.00     0.001 A 
ATOM     85  CH2 TRP     2      62.784  41.039  46.805  1.00  0.00     0.002 A 
ATOM     86  CZ2 TRP     2      62.879  41.769  45.623  1.00  0.00     0.030 A 
ATOM     87  NE1 TRP     2      61.588  43.201  44.053  1.00  0.00    -0.365 N 
ATOM     88  HE1 TRP     2      62.301  43.502  43.428  1.00 99.99     0.165 HD
ATOM     89  CD1 TRP     2      60.312  43.603  44.016  1.00  0.00     0.097 A 
ENDBRANCH  79  80
ENDBRANCH  10  79
ENDBRANCH   8  10
ENDBRANCH   5   6
BRANCH   5  90
ATOM     90  CB  THR     1      57.323  39.370  43.704  1.00  0.00     0.148 C 
ATOM     91  CG2 THR     1      57.139  38.233  42.695  1.00  0.00     0.034 C 
BRANCH  90  92
ATOM     92  OG1 THR     1      57.184  40.666  43.104  1.00  0.00    -0.382 OA
ATOM     93  HG1 THR     1      57.944  40.859  42.482  1.00 99.99     0.210 HD
ENDBRANCH  90  92
ENDBRANCH   5  90
ENDBRANCH   1   5
TORSDOF 26
ENDMDL
MODEL 7
REMARK VINA RESULT:      -5.5      1.838      3.726
REMARK  26 active torsions:
REMARK  status: ('A' for Active; 'I' for Inactive)
REMARK    1  A    between atoms: N_1  and  CA_2 
REMARK    2  A    between atoms: CA_2  and  C_3 
REMARK    3  A    between atoms: CA_2  and  CB_5 
REMARK       I    between atoms: C_3  and  N_12 
REMARK    4  A    between atoms: CB_5  and  OG1_6 
REMARK    5  A    between atoms: N_12  and  CA_13 
REMARK    6  A    between atoms: CA_13  and  C_14 
REMARK    7  A    between atoms: CA_13  and  CB_16 
REMARK       I    between atoms: C_14  and  N_28 
REMARK    8  A    between atoms: CB_16  and  CG_17 
REMARK    9  A    between atoms: N_28  and  CA_29 
REMARK   10  A    between atoms: CA_29  and  C_30 
REMARK   11  A    between atoms: CA_29  and  CB_32 
REMARK       I    between atoms: C_30  and  N_44 
REMARK   12  A    between atoms: CB_32  and  CG_33 
REMARK   13  A    between atoms: N_44  and  CA_45 
REMARK   14  A    between atoms: CA_45  and  C_46 
REMARK   15  A    between atoms: CA_45  and  CB_48 
REMARK       I    between atoms: C_46  and  N_61 
REMARK   16  A    between atoms: CB_48  and  CG_49 
REMARK   17  A    between atoms: CG_49  and  CD_50 
REMARK   18  A    between atoms: CD_50  and  NE_51 
REMARK       I    between atoms: NE_51  and  CZ_52 
REMARK       I    between atoms: CZ_52  and  NH1_53 
REMARK   19  A    between atoms: N_61  and  CA_62 
REMARK   20  A    between atoms: CA_62  and  C_63 
REMARK   21  A    between atoms: CA_62  and  CB_65 
REMARK       I    between atoms: C_63  and  N_77 
REMARK   22  A    between atoms: CB_65  and  CG_66 
REMARK   23  A    between atoms: N_77  and  CA_78 
REMARK   24  A    between atoms: CA_78  and  C_79 
REMARK   25  A    between atoms: CA_78  and  CB_81 
REMARK   26  A    between atoms: CB_81  and  CG_82 
ROOT
ATOM      1  N   THR     1      66.659  44.787  49.432  1.00  0.00    -0.055 N 
ATOM      2  H1  THR     1      66.817  45.609  49.967  1.00 99.99     0.276 HD
ATOM      3  H2  THR     1      66.883  43.985  49.992  1.00 99.99     0.276 HD
ATOM      4  H3  THR     1      67.262  44.725  48.660  1.00 99.99     0.276 HD
ENDROOT
BRANCH   1   5
ATOM      5  CA  THR     1      65.218  44.696  49.021  1.00  0.00     0.281 C 
BRANCH   5   6
ATOM      6  C   THR     1      64.931  44.237  47.581  1.00  0.00     0.261 C 
ATOM      7  O   THR     1      65.373  44.897  46.636  1.00  0.00    -0.270 OA
ATOM      8  N   TRP     2      63.919  43.372  47.414  1.00  0.00    -0.337 N 
ATOM      9  H   TRP     2      63.164  43.328  48.063  1.00 99.99     0.164 HD
BRANCH   8  10
ATOM     10  CA  TRP     2      63.765  42.508  46.227  1.00  0.00     0.164 C 
BRANCH  10  11
ATOM     11  C   TRP     2      62.552  42.833  45.335  1.00  0.00     0.251 C 
ATOM     12  O   TRP     2      61.444  42.929  45.868  1.00  0.00    -0.271 OA
ATOM     13  N   TRP     3      62.721  42.622  44.024  1.00  0.00    -0.337 N 
ATOM     14  H   TRP     3      63.622  42.376  43.677  1.00 99.99     0.164 HD
BRANCH  13  15
ATOM     15  CA  TRP     3      61.726  42.810  42.945  1.00  0.00     0.164 C 
BRANCH  15  16
ATOM     16  C   TRP     3      60.235  42.942  43.321  1.00  0.00     0.251 C 
ATOM     17  O   TRP     3      59.607  43.956  43.012  1.00  0.00    -0.271 OA
ATOM     18  N   ARG     4      59.649  41.859  43.831  1.00  0.00    -0.338 N 
ATOM     19  H   ARG     4      60.163  41.005  43.942  1.00 99.99     0.164 HD
BRANCH  18  20
ATOM     20  CA  ARG     4      58.236  41.777  44.250  1.00  0.00     0.159 C 
BRANCH  20  21
ATOM     21  C   ARG     4      58.045  41.668  45.778  1.00  0.00     0.251 C 
ATOM     22  O   ARG     4      57.017  42.073  46.321  1.00  0.00    -0.271 OA
ATOM     23  N   TRP     5      59.013  41.049  46.458  1.00  0.00    -0.337 N 
ATOM     24  H   TRP     5      59.839  40.727  45.991  1.00 99.99     0.164 HD
BRANCH  23  25
ATOM     25  CA  TRP     5      58.981  40.788  47.911  1.00  0.00     0.164 C 
BRANCH  25  26
ATOM     26  C   TRP     5      57.626  40.250  48.403  1.00  0.00     0.251 C 
ATOM     27  O   TRP     5      57.251  39.111  48.114  1.00  0.00    -0.271 OA
ATOM     28  N   TRP     6      56.944  41.073  49.205  1.00  0.00    -0.336 N 
ATOM     29  H   TRP     6      57.348  41.949  49.476  1.00 99.99     0.164 HD
BRANCH  28  30
ATOM     30  CA  TRP     6      55.581  40.872  49.735  1.00  0.00     0.173 C 
BRANCH  30  31
ATOM     31  C   TRP     6      54.762  42.137  49.423  1.00  0.00     0.207 C 
ATOM     32  O   TRP     6      55.355  43.142  48.977  1.00 99.99    -0.646 OA
ATOM     33  OXT TRP     6      53.541  42.064  49.698  1.00 99.99    -0.646 OA
ENDBRANCH  30  31
BRANCH  30  34
ATOM     34  CB  TRP     6      55.587  40.746  51.265  1.00  0.00     0.060 C 
BRANCH  34  35
ATOM     35  CG  TRP     6      56.801  41.373  51.957  1.00  0.00    -0.016 A 
ATOM     36  CD1 TRP     6      56.976  42.656  52.209  1.00  0.00     0.097 A 
ATOM     37  NE1 TRP     6      58.209  42.857  52.686  1.00  0.00    -0.365 N 
ATOM     38  CE2 TRP     6      58.852  41.687  52.740  1.00  0.00     0.042 A 
ATOM     39  HE1 TRP     6      58.571  43.736  52.983  1.00 99.99     0.165 HD
ATOM     40  CD2 TRP     6      57.971  40.713  52.295  1.00  0.00    -0.001 A 
ATOM     41  CZ2 TRP     6      60.148  41.325  53.092  1.00  0.00     0.030 A 
ATOM     42  CE3 TRP     6      58.362  39.386  52.217  1.00  0.00     0.014 A 
ATOM     43  CZ3 TRP     6      59.649  39.025  52.560  1.00  0.00     0.001 A 
ATOM     44  CH2 TRP     6      60.551  40.003  53.003  1.00  0.00     0.002 A 
ENDBRANCH  34  35
ENDBRANCH  30  34
ENDBRANCH  28  30
ENDBRANCH  25  26
BRANCH  25  45
ATOM     45  CB  TRP     5      59.326  42.082  48.666  1.00  0.00     0.059 C 
BRANCH  45  46
ATOM     46  CG  TRP     5      60.637  42.094  49.472  1.00  0.00    -0.016 A 
ATOM     47  CD1 TRP     5      61.292  43.127  49.995  1.00  0.00     0.097 A 
ATOM     48  NE1 TRP     5      62.478  42.730  50.465  1.00  0.00    -0.365 N 
ATOM     49  HE1 TRP     5      63.177  43.332  50.842  1.00 99.99     0.165 HD
ATOM     50  CE2 TRP     5      62.606  41.416  50.268  1.00  0.00     0.042 A 
ATOM     51  CZ2 TRP     5      63.614  40.508  50.554  1.00  0.00     0.030 A 
ATOM     52  CD2 TRP     5      61.450  40.982  49.638  1.00  0.00    -0.001 A 
ATOM     53  CH2 TRP     5      63.465  39.168  50.214  1.00  0.00     0.002 A 
ATOM     54  CZ3 TRP     5      62.300  38.735  49.585  1.00  0.00     0.001 A 
ATOM     55  CE3 TRP     5      61.298  39.651  49.295  1.00  0.00     0.014 A 
ENDBRANCH  45  46
ENDBRANCH  25  45
ENDBRANCH  23  25
ENDBRANCH  20  21
BRANCH  20  56
ATOM     56  CB  ARG     4      57.637  40.565  43.520  1.00  0.00     0.034 C 
BRANCH  56  57
ATOM     57  CG  ARG     4      58.428  40.152  42.276  1.00  0.00     0.027 C 
BRANCH  57  58
ATOM     58  CD  ARG     4      57.786  40.665  40.985  1.00  0.00     0.116 C 
BRANCH  58  59
ATOM     59  NE  ARG     4      58.014  42.111  40.808  1.00  0.00    -0.212 N 
ATOM     60  CZ  ARG     4      58.825  42.690  39.913  1.00  0.00     0.666 C 
ATOM     61  NH2 ARG     4      59.083  43.985  40.001  1.00  0.00    -0.235 N 
ATOM     62  NH1 ARG     4      59.500  41.986  39.012  1.00  0.00    -0.235 N 
ATOM     63 2HH2 ARG     4      58.687  44.530  40.736  1.00 99.99     0.174 HD
ATOM     64 1HH2 ARG     4      59.695  44.408  39.334  1.00 99.99     0.174 HD
ATOM     65 2HH1 ARG     4      59.384  40.993  38.992  1.00 99.99     0.174 HD
ATOM     66 1HH1 ARG     4      60.097  42.437  38.355  1.00 99.99     0.174 HD
ATOM     67  HE  ARG     4      57.464  42.698  41.396  1.00 99.99     0.178 HD
ENDBRANCH  58  59
ENDBRANCH  57  58
ENDBRANCH  56  57
ENDBRANCH  20  56
ENDBRANCH  18  20
ENDBRANCH  15  16
BRANCH  15  68
ATOM     68  CB  TRP     3      61.892  41.657  41.938  1.00  0.00     0.059 C 
BRANCH  68  69
ATOM     69  CG  TRP     3      62.645  40.434  42.486  1.00  0.00    -0.016 A 
ATOM     70  CD2 TRP     3      63.989  40.150  42.280  1.00  0.00    -0.001 A 
ATOM     71  CE3 TRP     3      64.973  40.773  41.527  1.00  0.00     0.014 A 
ATOM     72  CE2 TRP     3      64.301  39.067  43.078  1.00  0.00     0.042 A 
ATOM     73  CZ3 TRP     3      66.281  40.309  41.570  1.00  0.00     0.001 A 
ATOM     74  CH2 TRP     3      66.597  39.212  42.364  1.00  0.00     0.002 A 
ATOM     75  CZ2 TRP     3      65.608  38.589  43.118  1.00  0.00     0.030 A 
ATOM     76  NE1 TRP     3      63.187  38.729  43.735  1.00  0.00    -0.365 N 
ATOM     77  CD1 TRP     3      62.196  39.551  43.368  1.00  0.00     0.097 A 
ATOM     78  HE1 TRP     3      63.120  38.020  44.432  1.00 99.99     0.165 HD
ENDBRANCH  68  69
ENDBRANCH  15  68
ENDBRANCH  13  15
ENDBRANCH  10  11
BRANCH  10  79
ATOM     79  CB  TRP     2      63.838  41.042  46.692  1.00  0.00     0.059 C 
BRANCH  79  80
ATOM     80  CG  TRP     2      65.265  40.487  46.688  1.00  0.00    -0.016 A 
ATOM     81  CD2 TRP     2      66.344  40.943  45.937  1.00  0.00    -0.001 A 
ATOM     82  CE3 TRP     2      66.528  41.998  45.058  1.00  0.00     0.014 A 
ATOM     83  CE2 TRP     2      67.363  40.021  46.142  1.00  0.00     0.042 A 
ATOM     84  CZ3 TRP     2      67.717  42.123  44.359  1.00  0.00     0.001 A 
ATOM     85  CH2 TRP     2      68.747  41.205  44.565  1.00  0.00     0.002 A 
ATOM     86  CZ2 TRP     2      68.565  40.155  45.461  1.00  0.00     0.030 A 
ATOM     87  NE1 TRP     2      66.909  39.090  46.979  1.00  0.00    -0.365 N 
ATOM     88  HE1 TRP     2      67.401  38.277  47.270  1.00 99.99     0.165 HD
ATOM     89  CD1 TRP     2      65.646  39.386  47.312  1.00  0.00     0.097 A 
ENDBRANCH  79  80
ENDBRANCH  10  79
ENDBRANCH   8  10
ENDBRANCH   5   6
BRANCH   5  90
ATOM     90  CB  THR     1      64.531  46.060  49.196  1.00  0.00     0.148 C 
ATOM     91  CG2 THR     1      63.773  46.163  50.522  1.00  0.00     0.034 C 
BRANCH  90  92
ATOM     92  OG1 THR     1      65.494  47.111  49.029  1.00  0.00    -0.382 OA
ATOM     93  HG1 THR     1      65.588  47.365  48.066  1.00 99.99     0.210 HD
ENDBRANCH  90  92
ENDBRANCH   5  90
ENDBRANCH   1   5
TORSDOF 26
ENDMDL
MODEL 8
REMARK VINA RESULT:      -5.5      2.340      7.961
REMARK  26 active torsions:
REMARK  status: ('A' for Active; 'I' for Inactive)
REMARK    1  A    between atoms: N_1  and  CA_2 
REMARK    2  A    between atoms: CA_2  and  C_3 
REMARK    3  A    between atoms: CA_2  and  CB_5 
REMARK       I    between atoms: C_3  and  N_12 
REMARK    4  A    between atoms: CB_5  and  OG1_6 
REMARK    5  A    between atoms: N_12  and  CA_13 
REMARK    6  A    between atoms: CA_13  and  C_14 
REMARK    7  A    between atoms: CA_13  and  CB_16 
REMARK       I    between atoms: C_14  and  N_28 
REMARK    8  A    between atoms: CB_16  and  CG_17 
REMARK    9  A    between atoms: N_28  and  CA_29 
REMARK   10  A    between atoms: CA_29  and  C_30 
REMARK   11  A    between atoms: CA_29  and  CB_32 
REMARK       I    between atoms: C_30  and  N_44 
REMARK   12  A    between atoms: CB_32  and  CG_33 
REMARK   13  A    between atoms: N_44  and  CA_45 
REMARK   14  A    between atoms: CA_45  and  C_46 
REMARK   15  A    between atoms: CA_45  and  CB_48 
REMARK       I    between atoms: C_46  and  N_61 
REMARK   16  A    between atoms: CB_48  and  CG_49 
REMARK   17  A    between atoms: CG_49  and  CD_50 
REMARK   18  A    between atoms: CD_50  and  NE_51 
REMARK       I    between atoms: NE_51  and  CZ_52 
REMARK       I    between atoms: CZ_52  and  NH1_53 
REMARK   19  A    between atoms: N_61  and  CA_62 
REMARK   20  A    between atoms: CA_62  and  C_63 
REMARK   21  A    between atoms: CA_62  and  CB_65 
REMARK       I    between atoms: C_63  and  N_77 
REMARK   22  A    between atoms: CB_65  and  CG_66 
REMARK   23  A    between atoms: N_77  and  CA_78 
REMARK   24  A    between atoms: CA_78  and  C_79 
REMARK   25  A    between atoms: CA_78  and  CB_81 
REMARK   26  A    between atoms: CB_81  and  CG_82 
ROOT
ATOM      1  N   THR     1      59.325  36.868  47.208  1.00  0.00    -0.055 N 
ATOM      2  H1  THR     1      58.614  37.288  46.655  1.00 99.99     0.276 HD
ATOM      3  H2  THR     1      59.084  35.908  47.377  1.00 99.99     0.276 HD
ATOM      4  H3  THR     1      59.385  37.268  48.102  1.00 99.99     0.276 HD
ENDROOT
BRANCH   1   5
ATOM      5  CA  THR     1      60.643  36.911  46.490  1.00  0.00     0.281 C 
BRANCH   5   6
ATOM      6  C   THR     1      61.552  38.121  46.770  1.00  0.00     0.261 C 
ATOM      7  O   THR     1      62.652  37.941  47.299  1.00  0.00    -0.270 OA
ATOM      8  N   TRP     2      60.965  39.327  46.773  1.00  0.00    -0.337 N 
ATOM      9  H   TRP     2      59.996  39.430  46.981  1.00 99.99     0.164 HD
BRANCH   8  10
ATOM     10  CA  TRP     2      61.698  40.597  46.595  1.00  0.00     0.164 C 
BRANCH  10  11
ATOM     11  C   TRP     2      60.943  41.858  47.055  1.00  0.00     0.251 C 
ATOM     12  O   TRP     2      61.006  42.174  48.246  1.00  0.00    -0.271 OA
ATOM     13  N   TRP     3      59.989  42.300  46.227  1.00  0.00    -0.337 N 
ATOM     14  H   TRP     3      59.881  41.877  45.331  1.00 99.99     0.164 HD
BRANCH  13  15
ATOM     15  CA  TRP     3      59.088  43.456  46.425  1.00  0.00     0.164 C 
BRANCH  15  16
ATOM     16  C   TRP     3      57.978  43.361  47.494  1.00  0.00     0.251 C 
ATOM     17  O   TRP     3      56.869  43.851  47.279  1.00  0.00    -0.271 OA
ATOM     18  N   ARG     4      58.234  42.595  48.555  1.00  0.00    -0.338 N 
ATOM     19  H   ARG     4      59.104  42.100  48.629  1.00 99.99     0.164 HD
BRANCH  18  20
ATOM     20  CA  ARG     4      57.308  42.369  49.681  1.00  0.00     0.159 C 
BRANCH  20  21
ATOM     21  C   ARG     4      57.999  42.354  51.062  1.00  0.00     0.251 C 
ATOM     22  O   ARG     4      57.342  42.327  52.102  1.00  0.00    -0.271 OA
ATOM     23  N   TRP     5      59.333  42.296  51.061  1.00  0.00    -0.337 N 
ATOM     24  H   TRP     5      59.844  42.318  50.199  1.00 99.99     0.164 HD
BRANCH  23  25
ATOM     25  CA  TRP     5      60.170  42.206  52.275  1.00  0.00     0.164 C 
BRANCH  25  26
ATOM     26  C   TRP     5      61.493  42.982  52.160  1.00  0.00     0.251 C 
ATOM     27  O   TRP     5      62.198  43.187  53.151  1.00  0.00    -0.271 OA
ATOM     28  N   TRP     6      61.838  43.339  50.920  1.00  0.00    -0.336 N 
ATOM     29  H   TRP     6      61.265  43.060  50.146  1.00 99.99     0.164 HD
BRANCH  28  30
ATOM     30  CA  TRP     6      62.986  44.178  50.522  1.00  0.00     0.173 C 
BRANCH  30  31
ATOM     31  C   TRP     6      62.531  45.647  50.555  1.00  0.00     0.207 C 
ATOM     32  O   TRP     6      62.506  46.245  51.652  1.00 99.99    -0.646 OA
ATOM     33  OXT TRP     6      62.168  46.119  49.451  1.00 99.99    -0.646 OA
ENDBRANCH  30  31
BRANCH  30  34
ATOM     34  CB  TRP     6      63.404  43.903  49.071  1.00  0.00     0.060 C 
BRANCH  34  35
ATOM     35  CG  TRP     6      64.875  43.519  48.888  1.00  0.00    -0.016 A 
ATOM     36  CD1 TRP     6      65.897  44.352  48.843  1.00  0.00     0.097 A 
ATOM     37  NE1 TRP     6      67.011  43.683  48.523  1.00  0.00    -0.365 N 
ATOM     38  CE2 TRP     6      66.709  42.393  48.349  1.00  0.00     0.042 A 
ATOM     39  HE1 TRP     6      67.920  44.084  48.460  1.00 99.99     0.165 HD
ATOM     40  CD2 TRP     6      65.351  42.252  48.592  1.00  0.00    -0.001 A 
ATOM     41  CZ2 TRP     6      67.451  41.284  47.959  1.00  0.00     0.030 A 
ATOM     42  CE3 TRP     6      64.734  41.018  48.469  1.00  0.00     0.014 A 
ATOM     43  CZ3 TRP     6      65.467  39.916  48.076  1.00  0.00     0.001 A 
ATOM     44  CH2 TRP     6      66.839  40.049  47.820  1.00  0.00     0.002 A 
ENDBRANCH  34  35
ENDBRANCH  30  34
ENDBRANCH  28  30
ENDBRANCH  25  26
BRANCH  25  45
ATOM     45  CB  TRP     5      60.463  40.728  52.578  1.00  0.00     0.059 C 
BRANCH  45  46
ATOM     46  CG  TRP     5      61.502  40.023  51.688  1.00  0.00    -0.016 A 
ATOM     47  CD1 TRP     5      61.341  39.462  50.492  1.00  0.00     0.097 A 
ATOM     48  NE1 TRP     5      62.449  38.804  50.140  1.00  0.00    -0.365 N 
ATOM     49  HE1 TRP     5      62.551  38.247  49.320  1.00 99.99     0.165 HD
ATOM     50  CE2 TRP     5      63.363  38.943  51.103  1.00  0.00     0.042 A 
ATOM     51  CZ2 TRP     5      64.660  38.477  51.255  1.00  0.00     0.030 A 
ATOM     52  CD2 TRP     5      62.790  39.714  52.103  1.00  0.00    -0.001 A 
ATOM     53  CH2 TRP     5      65.384  38.784  52.401  1.00  0.00     0.002 A 
ATOM     54  CZ3 TRP     5      64.806  39.563  53.402  1.00  0.00     0.001 A 
ATOM     55  CE3 TRP     5      63.504  40.020  53.246  1.00  0.00     0.014 A 
ENDBRANCH  45  46
ENDBRANCH  25  45
ENDBRANCH  23  25
ENDBRANCH  20  21
BRANCH  20  56
ATOM     56  CB  ARG     4      56.593  41.040  49.396  1.00  0.00     0.034 C 
BRANCH  56  57
ATOM     57  CG  ARG     4      55.171  41.218  48.856  1.00  0.00     0.027 C 
BRANCH  57  58
ATOM     58  CD  ARG     4      54.121  41.192  49.970  1.00  0.00     0.116 C 
BRANCH  58  59
ATOM     59  NE  ARG     4      54.751  41.196  51.303  1.00  0.00    -0.212 N 
ATOM     60  CZ  ARG     4      54.445  40.396  52.334  1.00  0.00     0.666 C 
ATOM     61  NH2 ARG     4      54.954  40.644  53.531  1.00  0.00    -0.235 N 
ATOM     62  NH1 ARG     4      53.536  39.435  52.236  1.00  0.00    -0.235 N 
ATOM     63 2HH2 ARG     4      55.552  41.430  53.673  1.00 99.99     0.174 HD
ATOM     64 1HH2 ARG     4      54.714  40.048  54.296  1.00 99.99     0.174 HD
ATOM     65 2HH1 ARG     4      53.077  39.293  51.359  1.00 99.99     0.174 HD
ATOM     66 1HH1 ARG     4      53.325  38.850  53.015  1.00 99.99     0.174 HD
ATOM     67  HE  ARG     4      55.507  41.836  51.409  1.00 99.99     0.178 HD
ENDBRANCH  58  59
ENDBRANCH  57  58
ENDBRANCH  56  57
ENDBRANCH  20  56
ENDBRANCH  18  20
ENDBRANCH  15  16
BRANCH  15  68
ATOM     68  CB  TRP     3      58.452  43.804  45.067  1.00  0.00     0.059 C 
BRANCH  68  69
ATOM     69  CG  TRP     3      58.420  42.641  44.062  1.00  0.00    -0.016 A 
ATOM     70  CD2 TRP     3      59.408  42.346  43.132  1.00  0.00    -0.001 A 
ATOM     71  CE3 TRP     3      60.592  42.982  42.790  1.00  0.00     0.014 A 
ATOM     72  CE2 TRP     3      59.072  41.138  42.553  1.00  0.00     0.042 A 
ATOM     73  CZ3 TRP     3      61.447  42.408  41.858  1.00  0.00     0.001 A 
ATOM     74  CH2 TRP     3      61.107  41.197  41.265  1.00  0.00     0.002 A 
ATOM     75  CZ2 TRP     3      59.919  40.561  41.611  1.00  0.00     0.030 A 
ATOM     76  NE1 TRP     3      57.934  40.732  43.123  1.00  0.00    -0.365 N 
ATOM     77  CD1 TRP     3      57.545  41.644  44.023  1.00  0.00     0.097 A 
ATOM     78  HE1 TRP     3      57.480  39.862  42.953  1.00 99.99     0.165 HD
ENDBRANCH  68  69
ENDBRANCH  15  68
ENDBRANCH  13  15
ENDBRANCH  10  11
BRANCH  10  79
ATOM     79  CB  TRP     2      62.203  40.653  45.141  1.00  0.00     0.059 C 
BRANCH  79  80
ATOM     80  CG  TRP     2      63.478  41.488  44.987  1.00  0.00    -0.016 A 
ATOM     81  CD2 TRP     2      64.743  41.036  44.626  1.00  0.00    -0.001 A 
ATOM     82  CE3 TRP     2      65.253  39.805  44.247  1.00  0.00     0.014 A 
ATOM     83  CE2 TRP     2      65.594  42.121  44.793  1.00  0.00     0.042 A 
ATOM     84  CZ3 TRP     2      66.615  39.643  44.059  1.00  0.00     0.001 A 
ATOM     85  CH2 TRP     2      67.475  40.731  44.219  1.00  0.00     0.002 A 
ATOM     86  CZ2 TRP     2      66.957  41.971  44.584  1.00  0.00     0.030 A 
ATOM     87  NE1 TRP     2      64.862  43.153  45.210  1.00  0.00    -0.365 N 
ATOM     88  HE1 TRP     2      65.208  44.051  45.459  1.00 99.99     0.165 HD
ATOM     89  CD1 TRP     2      63.585  42.764  45.313  1.00  0.00     0.097 A 
ENDBRANCH  79  80
ENDBRANCH  10  79
ENDBRANCH   8  10
ENDBRANCH   5   6
BRANCH   5  90
ATOM     90  CB  THR     1      60.417  36.871  44.970  1.00  0.00     0.148 C 
ATOM     91  CG2 THR     1      61.730  36.752  44.191  1.00  0.00     0.034 C 
BRANCH  90  92
ATOM     92  OG1 THR     1      59.489  35.826  44.646  1.00  0.00    -0.382 OA
ATOM     93  HG1 THR     1      58.788  35.733  45.355  1.00 99.99     0.210 HD
ENDBRANCH  90  92
ENDBRANCH   5  90
ENDBRANCH   1   5
TORSDOF 26
ENDMDL
MODEL 9
REMARK VINA RESULT:      -5.4      2.992     10.243
REMARK  26 active torsions:
REMARK  status: ('A' for Active; 'I' for Inactive)
REMARK    1  A    between atoms: N_1  and  CA_2 
REMARK    2  A    between atoms: CA_2  and  C_3 
REMARK    3  A    between atoms: CA_2  and  CB_5 
REMARK       I    between atoms: C_3  and  N_12 
REMARK    4  A    between atoms: CB_5  and  OG1_6 
REMARK    5  A    between atoms: N_12  and  CA_13 
REMARK    6  A    between atoms: CA_13  and  C_14 
REMARK    7  A    between atoms: CA_13  and  CB_16 
REMARK       I    between atoms: C_14  and  N_28 
REMARK    8  A    between atoms: CB_16  and  CG_17 
REMARK    9  A    between atoms: N_28  and  CA_29 
REMARK   10  A    between atoms: CA_29  and  C_30 
REMARK   11  A    between atoms: CA_29  and  CB_32 
REMARK       I    between atoms: C_30  and  N_44 
REMARK   12  A    between atoms: CB_32  and  CG_33 
REMARK   13  A    between atoms: N_44  and  CA_45 
REMARK   14  A    between atoms: CA_45  and  C_46 
REMARK   15  A    between atoms: CA_45  and  CB_48 
REMARK       I    between atoms: C_46  and  N_61 
REMARK   16  A    between atoms: CB_48  and  CG_49 
REMARK   17  A    between atoms: CG_49  and  CD_50 
REMARK   18  A    between atoms: CD_50  and  NE_51 
REMARK       I    between atoms: NE_51  and  CZ_52 
REMARK       I    between atoms: CZ_52  and  NH1_53 
REMARK   19  A    between atoms: N_61  and  CA_62 
REMARK   20  A    between atoms: CA_62  and  C_63 
REMARK   21  A    between atoms: CA_62  and  CB_65 
REMARK       I    between atoms: C_63  and  N_77 
REMARK   22  A    between atoms: CB_65  and  CG_66 
REMARK   23  A    between atoms: N_77  and  CA_78 
REMARK   24  A    between atoms: CA_78  and  C_79 
REMARK   25  A    between atoms: CA_78  and  CB_81 
REMARK   26  A    between atoms: CB_81  and  CG_82 
ROOT
ATOM      1  N   THR     1      66.288  45.478  47.259  1.00  0.00    -0.055 N 
ATOM      2  H1  THR     1      66.453  46.457  47.249  1.00 99.99     0.276 HD
ATOM      3  H2  THR     1      67.164  44.997  47.162  1.00 99.99     0.276 HD
ATOM      4  H3  THR     1      65.758  45.182  46.487  1.00 99.99     0.276 HD
ENDROOT
BRANCH   1   5
ATOM      5  CA  THR     1      65.657  45.064  48.558  1.00  0.00     0.281 C 
BRANCH   5   6
ATOM      6  C   THR     1      64.807  43.781  48.543  1.00  0.00     0.261 C 
ATOM      7  O   THR     1      65.366  42.684  48.623  1.00  0.00    -0.270 OA
ATOM      8  N   TRP     2      63.554  43.894  48.077  1.00  0.00    -0.337 N 
ATOM      9  H   TRP     2      63.306  44.610  47.429  1.00 99.99     0.164 HD
BRANCH   8  10
ATOM     10  CA  TRP     2      62.479  42.926  48.372  1.00  0.00     0.164 C 
BRANCH  10  11
ATOM     11  C   TRP     2      61.823  42.281  47.136  1.00  0.00     0.251 C 
ATOM     12  O   TRP     2      62.502  41.515  46.448  1.00  0.00    -0.271 OA
ATOM     13  N   TRP     3      60.708  42.874  46.694  1.00  0.00    -0.337 N 
ATOM     14  H   TRP     3      60.301  43.614  47.222  1.00 99.99     0.164 HD
BRANCH  13  15
ATOM     15  CA  TRP     3      59.893  42.498  45.517  1.00  0.00     0.164 C 
BRANCH  15  16
ATOM     16  C   TRP     3      60.362  42.941  44.114  1.00  0.00     0.251 C 
ATOM     17  O   TRP     3      59.917  43.974  43.611  1.00  0.00    -0.271 OA
ATOM     18  N   ARG     4      61.368  42.252  43.575  1.00  0.00    -0.338 N 
ATOM     19  H   ARG     4      61.797  41.498  44.078  1.00 99.99     0.164 HD
BRANCH  18  20
ATOM     20  CA  ARG     4      61.964  42.517  42.252  1.00  0.00     0.159 C 
BRANCH  20  21
ATOM     21  C   ARG     4      61.042  42.152  41.069  1.00  0.00     0.251 C 
ATOM     22  O   ARG     4      60.957  40.994  40.661  1.00  0.00    -0.271 OA
ATOM     23  N   TRP     5      60.292  43.138  40.570  1.00  0.00    -0.337 N 
ATOM     24  H   TRP     5      60.379  44.073  40.922  1.00 99.99     0.164 HD
BRANCH  23  25
ATOM     25  CA  TRP     5      59.302  42.974  39.487  1.00  0.00     0.164 C 
BRANCH  25  26
ATOM     26  C   TRP     5      58.420  41.724  39.655  1.00  0.00     0.251 C 
ATOM     27  O   TRP     5      57.603  41.641  40.575  1.00  0.00    -0.271 OA
ATOM     28  N   TRP     6      58.560  40.796  38.704  1.00  0.00    -0.336 N 
ATOM     29  H   TRP     6      59.175  40.967  37.931  1.00 99.99     0.164 HD
BRANCH  28  30
ATOM     30  CA  TRP     6      57.932  39.461  38.663  1.00  0.00     0.173 C 
BRANCH  30  31
ATOM     31  C   TRP     6      58.736  38.532  39.589  1.00  0.00     0.207 C 
ATOM     32  O   TRP     6      58.333  38.355  40.759  1.00 99.99    -0.646 OA
ATOM     33  OXT TRP     6      59.784  38.058  39.091  1.00 99.99    -0.646 OA
ENDBRANCH  30  31
BRANCH  30  34
ATOM     34  CB  TRP     6      58.027  38.839  37.263  1.00  0.00     0.060 C 
BRANCH  34  35
ATOM     35  CG  TRP     6      57.939  39.840  36.107  1.00  0.00    -0.016 A 
ATOM     36  CD1 TRP     6      56.835  40.228  35.497  1.00  0.00     0.097 A 
ATOM     37  NE1 TRP     6      57.147  40.990  34.443  1.00  0.00    -0.365 N 
ATOM     38  CE2 TRP     6      58.476  41.095  34.359  1.00  0.00     0.042 A 
ATOM     39  HE1 TRP     6      56.487  41.432  33.842  1.00 99.99     0.165 HD
ATOM     40  CD2 TRP     6      59.012  40.383  35.422  1.00  0.00    -0.001 A 
ATOM     41  CZ2 TRP     6      59.330  41.704  33.446  1.00  0.00     0.030 A 
ATOM     42  CE3 TRP     6      60.384  40.290  35.592  1.00  0.00     0.014 A 
ATOM     43  CZ3 TRP     6      61.234  40.888  34.683  1.00  0.00     0.001 A 
ATOM     44  CH2 TRP     6      60.703  41.604  33.601  1.00  0.00     0.002 A 
ENDBRANCH  34  35
ENDBRANCH  30  34
ENDBRANCH  28  30
ENDBRANCH  25  26
BRANCH  25  45
ATOM     45  CB  TRP     5      60.034  42.910  38.137  1.00  0.00     0.059 C 
BRANCH  45  46
ATOM     46  CG  TRP     5      59.452  43.747  36.984  1.00  0.00    -0.016 A 
ATOM     47  CD1 TRP     5      58.182  43.910  36.624  1.00  0.00     0.097 A 
ATOM     48  NE1 TRP     5      58.115  44.570  35.464  1.00  0.00    -0.365 N 
ATOM     49  HE1 TRP     5      57.278  44.755  34.955  1.00 99.99     0.165 HD
ATOM     50  CE2 TRP     5      59.352  44.863  35.058  1.00  0.00     0.042 A 
ATOM     51  CZ2 TRP     5      59.854  45.523  33.945  1.00  0.00     0.030 A 
ATOM     52  CD2 TRP     5      60.226  44.352  36.005  1.00  0.00    -0.001 A 
ATOM     53  CH2 TRP     5      61.227  45.673  33.783  1.00  0.00     0.002 A 
ATOM     54  CZ3 TRP     5      62.102  45.161  34.739  1.00  0.00     0.001 A 
ATOM     55  CE3 TRP     5      61.591  44.497  35.846  1.00  0.00     0.014 A 
ENDBRANCH  45  46
ENDBRANCH  25  45
ENDBRANCH  23  25
ENDBRANCH  20  21
BRANCH  20  56
ATOM     56  CB  ARG     4      63.281  41.728  42.202  1.00  0.00     0.034 C 
BRANCH  56  57
ATOM     57  CG  ARG     4      63.349  40.594  43.230  1.00  0.00     0.027 C 
BRANCH  57  58
ATOM     58  CD  ARG     4      64.780  40.100  43.454  1.00  0.00     0.116 C 
BRANCH  58  59
ATOM     59  NE  ARG     4      65.646  41.175  43.972  1.00  0.00    -0.212 N 
ATOM     60  CZ  ARG     4      65.856  41.481  45.260  1.00  0.00     0.666 C 
ATOM     61  NH2 ARG     4      66.499  42.595  45.574  1.00  0.00    -0.235 N 
ATOM     62  NH1 ARG     4      65.323  40.775  46.250  1.00  0.00    -0.235 N 
ATOM     63 2HH2 ARG     4      66.815  43.214  44.859  1.00 99.99     0.174 HD
ATOM     64 1HH2 ARG     4      66.645  42.819  46.536  1.00 99.99     0.174 HD
ATOM     65 2HH1 ARG     4      64.759  39.981  46.025  1.00 99.99     0.174 HD
ATOM     66 1HH1 ARG     4      65.494  41.020  47.200  1.00 99.99     0.174 HD
ATOM     67  HE  ARG     4      66.147  41.683  43.278  1.00 99.99     0.178 HD
ENDBRANCH  58  59
ENDBRANCH  57  58
ENDBRANCH  56  57
ENDBRANCH  20  56
ENDBRANCH  18  20
ENDBRANCH  15  16
BRANCH  15  68
ATOM     68  CB  TRP     3      58.457  43.000  45.751  1.00  0.00     0.059 C 
BRANCH  68  69
ATOM     69  CG  TRP     3      57.566  42.034  46.549  1.00  0.00    -0.016 A 
ATOM     70  CD2 TRP     3      56.816  42.363  47.671  1.00  0.00    -0.001 A 
ATOM     71  CE3 TRP     3      56.697  43.532  48.408  1.00  0.00     0.014 A 
ATOM     72  CE2 TRP     3      56.037  41.264  47.973  1.00  0.00     0.042 A 
ATOM     73  CZ3 TRP     3      55.791  43.603  49.458  1.00  0.00     0.001 A 
ATOM     74  CH2 TRP     3      55.011  42.495  49.772  1.00  0.00     0.002 A 
ATOM     75  CZ2 TRP     3      55.133  41.324  49.031  1.00  0.00     0.030 A 
ATOM     76  NE1 TRP     3      56.310  40.325  47.061  1.00  0.00    -0.365 N 
ATOM     77  CD1 TRP     3      57.234  40.794  46.214  1.00  0.00     0.097 A 
ATOM     78  HE1 TRP     3      55.853  39.443  46.986  1.00 99.99     0.165 HD
ENDBRANCH  68  69
ENDBRANCH  15  68
ENDBRANCH  13  15
ENDBRANCH  10  11
BRANCH  10  79
ATOM     79  CB  TRP     2      61.487  43.598  49.340  1.00  0.00     0.059 C 
BRANCH  79  80
ATOM     80  CG  TRP     2      61.409  42.891  50.696  1.00  0.00    -0.016 A 
ATOM     81  CD2 TRP     2      60.290  42.304  51.277  1.00  0.00    -0.001 A 
ATOM     82  CE3 TRP     2      58.984  42.102  50.862  1.00  0.00     0.014 A 
ATOM     83  CE2 TRP     2      60.672  41.956  52.566  1.00  0.00     0.042 A 
ATOM     84  CZ3 TRP     2      58.047  41.579  51.737  1.00  0.00     0.001 A 
ATOM     85  CH2 TRP     2      58.426  41.220  53.031  1.00  0.00     0.002 A 
ATOM     86  CZ2 TRP     2      59.744  41.409  53.441  1.00  0.00     0.030 A 
ATOM     87  NE1 TRP     2      61.949  42.304  52.721  1.00  0.00    -0.365 N 
ATOM     88  HE1 TRP     2      62.479  42.220  53.559  1.00 99.99     0.165 HD
ATOM     89  CD1 TRP     2      62.388  42.856  51.584  1.00  0.00     0.097 A 
ENDBRANCH  79  80
ENDBRANCH  10  79
ENDBRANCH   8  10
ENDBRANCH   5   6
BRANCH   5  90
ATOM     90  CB  THR     1      64.752  46.188  49.087  1.00  0.00     0.148 C 
ATOM     91  CG2 THR     1      64.234  45.901  50.498  1.00  0.00     0.034 C 
BRANCH  90  92
ATOM     92  OG1 THR     1      65.440  47.445  48.999  1.00  0.00    -0.382 OA
ATOM     93  HG1 THR     1      64.797  48.211  49.018  1.00 99.99     0.210 HD
ENDBRANCH  90  92
ENDBRANCH   5  90
ENDBRANCH   1   5
TORSDOF 26
ENDMDL
