MODEL 1
REMARK VINA RESULT:      -4.5      0.000      0.000
REMARK  23 active torsions:
REMARK  status: ('A' for Active; 'I' for Inactive)
REMARK    1  A    between atoms: N_1  and  CA_2 
REMARK    2  A    between atoms: CA_2  and  C_3 
REMARK       I    between atoms: C_3  and  N_8 
REMARK    3  A    between atoms: N_8  and  CA_9 
REMARK    4  A    between atoms: CA_9  and  CB_12 
REMARK    5  A    between atoms: CA_9  and  C_10 
REMARK       I    between atoms: C_10  and  N_17 
REMARK    6  A    between atoms: CB_12  and  CG_13 
REMARK    7  A    between atoms: N_17  and  CA_18 
REMARK    8  A    between atoms: CA_18  and  CB_21 
REMARK    9  A    between atoms: CA_18  and  C_19 
REMARK       I    between atoms: C_19  and  N_26 
REMARK   10  A    between atoms: CB_21  and  CG_22 
REMARK   11  A    between atoms: N_26  and  CA_27 
REMARK   12  A    between atoms: CA_27  and  CB_30 
REMARK   13  A    between atoms: CA_27  and  C_28 
REMARK       I    between atoms: C_28  and  N_39 
REMARK   14  A    between atoms: CB_30  and  CG_31 
REMARK   15  A    between atoms: CG_31  and  CD_32 
REMARK   16  A    between atoms: CD_32  and  CE_33 
REMARK   17  A    between atoms: CE_33  and  NZ_34 
REMARK   18  A    between atoms: N_39  and  CA_40 
REMARK   19  A    between atoms: CA_40  and  C_41 
REMARK   20  A    between atoms: CA_40  and  CB_43 
REMARK   21  A    between atoms: CB_43  and  CG_44 
REMARK   22  A    between atoms: CG_44  and  CD_45 
REMARK   23  A    between atoms: CD_45  and  NE_46 
REMARK       I    between atoms: NE_46  and  CZ_47 
REMARK       I    between atoms: CZ_47  and  NH1_48 
ROOT
ATOM      1  N   GLY     1      62.302  41.419  52.403  1.00  0.00    -0.055 N 
ATOM      2  H1  GLY     1      61.760  41.187  51.593  1.00 99.99     0.276 HD
ATOM      3  H2  GLY     1      63.203  41.033  52.334  1.00 99.99     0.276 HD
ATOM      4  H3  GLY     1      61.884  40.988  53.185  1.00 99.99     0.276 HD
ENDROOT
BRANCH   1   5
ATOM      5  CA  GLY     1      62.318  42.880  52.554  1.00  0.00     0.292 C 
BRANCH   5   6
ATOM      6  C   GLY     1      62.113  43.497  51.160  1.00  0.00     0.261 C 
ATOM      7  O   GLY     1      62.193  44.717  51.032  1.00  0.00    -0.270 OA
ATOM      8  N   LEU     2      61.386  42.735  50.346  1.00  0.00    -0.337 N 
ATOM      9  H   LEU     2      61.136  41.804  50.605  1.00 99.99     0.164 HD
BRANCH   8  10
ATOM     10  CA  LEU     2      61.022  43.094  48.959  1.00  0.00     0.159 C 
BRANCH  10  11
ATOM     11  CB  LEU     2      61.838  42.209  48.004  1.00  0.00     0.032 C 
BRANCH  11  12
ATOM     12  CG  LEU     2      62.718  43.027  47.047  1.00  0.00     0.002 C 
ATOM     13  CD2 LEU     2      63.504  42.124  46.090  1.00  0.00     0.000 C 
ATOM     14  CD1 LEU     2      63.683  43.908  47.842  1.00  0.00     0.000 C 
ENDBRANCH  11  12
ENDBRANCH  10  11
BRANCH  10  15
ATOM     15  C   LEU     2      59.512  43.036  48.637  1.00  0.00     0.251 C 
ATOM     16  N   LEU     3      59.093  43.680  47.542  1.00  0.00    -0.338 N 
ATOM     17  H   LEU     3      59.703  44.293  47.043  1.00 99.99     0.164 HD
ATOM     18  O   LEU     2      58.790  42.295  49.302  1.00  0.00    -0.271 OA
BRANCH  16  19
ATOM     19  CA  LEU     3      57.706  43.679  47.016  1.00  0.00     0.159 C 
BRANCH  19  20
ATOM     20  CB  LEU     3      57.426  42.311  46.368  1.00  0.00     0.032 C 
BRANCH  20  21
ATOM     21  CG  LEU     3      58.457  41.826  45.339  1.00  0.00     0.002 C 
ATOM     22  CD1 LEU     3      59.050  40.498  45.814  1.00  0.00     0.000 C 
ATOM     23  CD2 LEU     3      57.840  41.646  43.948  1.00  0.00     0.000 C 
ENDBRANCH  20  21
ENDBRANCH  19  20
BRANCH  19  24
ATOM     24  C   LEU     3      56.602  44.027  48.052  1.00  0.00     0.251 C 
ATOM     25  O   LEU     3      56.200  45.179  48.208  1.00  0.00    -0.271 OA
ATOM     26  N   LYS     4      56.083  42.983  48.694  1.00  0.00    -0.338 N 
ATOM     27  H   LYS     4      56.359  42.070  48.386  1.00 99.99     0.164 HD
BRANCH  26  28
ATOM     28  CA  LYS     4      55.052  42.970  49.764  1.00  0.00     0.159 C 
BRANCH  28  29
ATOM     29  CB  LYS     4      54.217  41.680  49.721  1.00  0.00     0.032 C 
BRANCH  29  30
ATOM     30  CG  LYS     4      54.635  40.661  48.662  1.00  0.00     0.004 C 
BRANCH  30  31
ATOM     31  CD  LYS     4      53.400  39.894  48.186  1.00  0.00     0.032 C 
BRANCH  31  32
ATOM     32  CE  LYS     4      53.782  38.737  47.263  1.00  0.00     0.206 C 
BRANCH  32  33
ATOM     33  NZ  LYS     4      54.947  39.088  46.436  1.00  0.00    -0.064 N 
ATOM     34  HZ3 LYS     4      55.764  38.664  46.827  1.00 99.99     0.275 HD
ATOM     35  HZ2 LYS     4      55.064  40.080  46.416  1.00 99.99     0.275 HD
ATOM     36  HZ1 LYS     4      54.810  38.745  45.507  1.00 99.99     0.275 HD
ENDBRANCH  32  33
ENDBRANCH  31  32
ENDBRANCH  30  31
ENDBRANCH  29  30
ENDBRANCH  28  29
BRANCH  28  37
ATOM     37  C   LYS     4      55.670  43.035  51.181  1.00  0.00     0.251 C 
ATOM     38  O   LYS     4      55.444  43.975  51.942  1.00  0.00    -0.271 OA
ATOM     39  N   ARG     5      56.463  42.018  51.512  1.00  0.00    -0.336 N 
ATOM     40  H   ARG     5      56.767  41.355  50.828  1.00 99.99     0.164 HD
BRANCH  39  41
ATOM     41  CA  ARG     5      57.064  41.793  52.842  1.00  0.00     0.168 C 
BRANCH  41  42
ATOM     42  C   ARG     5      58.556  42.144  52.816  1.00  0.00     0.206 C 
ATOM     43  OXT ARG     5      59.296  41.242  52.363  1.00 99.99    -0.646 OA
ATOM     44  O   ARG     5      58.918  43.266  53.231  1.00 99.99    -0.646 OA
ENDBRANCH  41  42
BRANCH  41  45
ATOM     45  CB  ARG     5      56.991  40.306  53.187  1.00  0.00     0.035 C 
BRANCH  45  46
ATOM     46  CG  ARG     5      55.974  39.499  52.381  1.00  0.00     0.027 C 
BRANCH  46  47
ATOM     47  CD  ARG     5      56.697  38.365  51.646  1.00  0.00     0.116 C 
BRANCH  47  48
ATOM     48  NE  ARG     5      58.036  38.817  51.205  1.00  0.00    -0.212 N 
ATOM     49  CZ  ARG     5      58.456  38.956  49.946  1.00  0.00     0.666 C 
ATOM     50  NH1 ARG     5      57.677  38.644  48.919  1.00  0.00    -0.235 N 
ATOM     51  NH2 ARG     5      59.661  39.445  49.692  1.00  0.00    -0.235 N 
ATOM     52 2HH1 ARG     5      56.764  38.287  49.105  1.00 99.99     0.174 HD
ATOM     53 1HH1 ARG     5      58.001  38.753  47.982  1.00 99.99     0.174 HD
ATOM     54 1HH2 ARG     5      59.959  39.545  48.744  1.00 99.99     0.174 HD
ATOM     55 2HH2 ARG     5      60.269  39.718  50.435  1.00 99.99     0.174 HD
ATOM     56  HE  ARG     5      58.697  38.963  51.939  1.00 99.99     0.178 HD
ENDBRANCH  47  48
ENDBRANCH  46  47
ENDBRANCH  45  46
ENDBRANCH  41  45
ENDBRANCH  39  41
ENDBRANCH  28  37
ENDBRANCH  26  28
ENDBRANCH  19  24
ENDBRANCH  16  19
ENDBRANCH  10  15
ENDBRANCH   8  10
ENDBRANCH   5   6
ENDBRANCH   1   5
TORSDOF 23
ENDMDL
MODEL 2
REMARK VINA RESULT:      -4.3      1.605      2.305
REMARK  23 active torsions:
REMARK  status: ('A' for Active; 'I' for Inactive)
REMARK    1  A    between atoms: N_1  and  CA_2 
REMARK    2  A    between atoms: CA_2  and  C_3 
REMARK       I    between atoms: C_3  and  N_8 
REMARK    3  A    between atoms: N_8  and  CA_9 
REMARK    4  A    between atoms: CA_9  and  CB_12 
REMARK    5  A    between atoms: CA_9  and  C_10 
REMARK       I    between atoms: C_10  and  N_17 
REMARK    6  A    between atoms: CB_12  and  CG_13 
REMARK    7  A    between atoms: N_17  and  CA_18 
REMARK    8  A    between atoms: CA_18  and  CB_21 
REMARK    9  A    between atoms: CA_18  and  C_19 
REMARK       I    between atoms: C_19  and  N_26 
REMARK   10  A    between atoms: CB_21  and  CG_22 
REMARK   11  A    between atoms: N_26  and  CA_27 
REMARK   12  A    between atoms: CA_27  and  CB_30 
REMARK   13  A    between atoms: CA_27  and  C_28 
REMARK       I    between atoms: C_28  and  N_39 
REMARK   14  A    between atoms: CB_30  and  CG_31 
REMARK   15  A    between atoms: CG_31  and  CD_32 
REMARK   16  A    between atoms: CD_32  and  CE_33 
REMARK   17  A    between atoms: CE_33  and  NZ_34 
REMARK   18  A    between atoms: N_39  and  CA_40 
REMARK   19  A    between atoms: CA_40  and  C_41 
REMARK   20  A    between atoms: CA_40  and  CB_43 
REMARK   21  A    between atoms: CB_43  and  CG_44 
REMARK   22  A    between atoms: CG_44  and  CD_45 
REMARK   23  A    between atoms: CD_45  and  NE_46 
REMARK       I    between atoms: NE_46  and  CZ_47 
REMARK       I    between atoms: CZ_47  and  NH1_48 
ROOT
ATOM      1  N   GLY     1      62.165  40.764  52.521  1.00  0.00    -0.055 N 
ATOM      2  H1  GLY     1      62.640  40.085  53.085  1.00 99.99     0.276 HD
ATOM      3  H2  GLY     1      61.203  40.566  52.487  1.00 99.99     0.276 HD
ATOM      4  H3  GLY     1      62.492  40.675  51.596  1.00 99.99     0.276 HD
ENDROOT
BRANCH   1   5
ATOM      5  CA  GLY     1      62.453  42.101  53.054  1.00  0.00     0.292 C 
BRANCH   5   6
ATOM      6  C   GLY     1      62.157  43.123  51.944  1.00  0.00     0.261 C 
ATOM      7  O   GLY     1      61.801  44.257  52.258  1.00  0.00    -0.270 OA
ATOM      8  N   LEU     2      61.827  42.562  50.783  1.00  0.00    -0.337 N 
ATOM      9  H   LEU     2      61.910  41.576  50.650  1.00 99.99     0.164 HD
BRANCH   8  10
ATOM     10  CA  LEU     2      61.477  43.309  49.557  1.00  0.00     0.159 C 
BRANCH  10  11
ATOM     11  CB  LEU     2      62.527  42.987  48.482  1.00  0.00     0.032 C 
BRANCH  11  12
ATOM     12  CG  LEU     2      63.765  43.893  48.576  1.00  0.00     0.002 C 
ATOM     13  CD2 LEU     2      63.389  45.321  48.989  1.00  0.00     0.000 C 
ATOM     14  CD1 LEU     2      64.504  43.915  47.238  1.00  0.00     0.000 C 
ENDBRANCH  11  12
ENDBRANCH  10  11
BRANCH  10  15
ATOM     15  C   LEU     2      60.041  43.082  49.033  1.00  0.00     0.251 C 
ATOM     16  N   LEU     3      59.744  43.575  47.826  1.00  0.00    -0.338 N 
ATOM     17  H   LEU     3      60.373  44.189  47.353  1.00 99.99     0.164 HD
ATOM     18  O   LEU     2      59.286  42.349  49.667  1.00  0.00    -0.271 OA
BRANCH  16  19
ATOM     19  CA  LEU     3      58.455  43.397  47.112  1.00  0.00     0.159 C 
BRANCH  19  20
ATOM     20  CB  LEU     3      58.346  41.932  46.652  1.00  0.00     0.032 C 
BRANCH  20  21
ATOM     21  CG  LEU     3      57.947  41.711  45.186  1.00  0.00     0.002 C 
ATOM     22  CD1 LEU     3      58.496  42.861  44.339  1.00  0.00     0.000 C 
ATOM     23  CD2 LEU     3      58.469  40.377  44.643  1.00  0.00     0.000 C 
ENDBRANCH  20  21
ENDBRANCH  19  20
BRANCH  19  24
ATOM     24  C   LEU     3      57.189  43.812  47.913  1.00  0.00     0.251 C 
ATOM     25  O   LEU     3      56.762  44.965  47.896  1.00  0.00    -0.271 OA
ATOM     26  N   LYS     4      56.574  42.818  48.549  1.00  0.00    -0.338 N 
ATOM     27  H   LYS     4      56.903  41.887  48.375  1.00 99.99     0.164 HD
BRANCH  26  28
ATOM     28  CA  LYS     4      55.377  42.877  49.427  1.00  0.00     0.159 C 
BRANCH  28  29
ATOM     29  CB  LYS     4      54.547  41.588  49.329  1.00  0.00     0.032 C 
BRANCH  29  30
ATOM     30  CG  LYS     4      55.168  40.466  48.498  1.00  0.00     0.004 C 
BRANCH  30  31
ATOM     31  CD  LYS     4      54.125  39.930  47.516  1.00  0.00     0.032 C 
BRANCH  31  32
ATOM     32  CE  LYS     4      54.743  39.639  46.148  1.00  0.00     0.206 C 
BRANCH  32  33
ATOM     33  NZ  LYS     4      54.290  38.338  45.633  1.00  0.00    -0.064 N 
ATOM     34  HZ3 LYS     4      54.222  37.692  46.393  1.00 99.99     0.275 HD
ATOM     35  HZ2 LYS     4      54.942  37.992  44.959  1.00 99.99     0.275 HD
ATOM     36  HZ1 LYS     4      53.391  38.444  45.208  1.00 99.99     0.275 HD
ENDBRANCH  32  33
ENDBRANCH  31  32
ENDBRANCH  30  31
ENDBRANCH  29  30
ENDBRANCH  28  29
BRANCH  28  37
ATOM     37  C   LYS     4      55.747  43.039  50.920  1.00  0.00     0.251 C 
ATOM     38  O   LYS     4      55.342  43.990  51.587  1.00  0.00    -0.271 OA
ATOM     39  N   ARG     5      56.533  42.091  51.426  1.00  0.00    -0.336 N 
ATOM     40  H   ARG     5      56.986  41.424  50.834  1.00 99.99     0.164 HD
BRANCH  39  41
ATOM     41  CA  ARG     5      56.919  41.959  52.845  1.00  0.00     0.168 C 
BRANCH  41  42
ATOM     42  C   ARG     5      58.431  42.151  53.004  1.00  0.00     0.206 C 
ATOM     43  OXT ARG     5      59.116  41.137  52.741  1.00 99.99    -0.646 OA
ATOM     44  O   ARG     5      58.861  43.266  53.371  1.00 99.99    -0.646 OA
ENDBRANCH  41  42
BRANCH  41  45
ATOM     45  CB  ARG     5      56.626  40.536  53.320  1.00  0.00     0.035 C 
BRANCH  45  46
ATOM     46  CG  ARG     5      55.965  39.626  52.285  1.00  0.00     0.027 C 
BRANCH  46  47
ATOM     47  CD  ARG     5      54.472  39.498  52.607  1.00  0.00     0.116 C 
BRANCH  47  48
ATOM     48  NE  ARG     5      53.779  38.766  51.523  1.00  0.00    -0.212 N 
ATOM     49  CZ  ARG     5      52.531  38.971  51.095  1.00  0.00     0.666 C 
ATOM     50  NH1 ARG     5      51.744  39.873  51.665  1.00  0.00    -0.235 N 
ATOM     51  NH2 ARG     5      52.058  38.292  50.059  1.00  0.00    -0.235 N 
ATOM     52 2HH1 ARG     5      52.099  40.395  52.437  1.00 99.99     0.174 HD
ATOM     53 1HH1 ARG     5      50.814  40.018  51.335  1.00 99.99     0.174 HD
ATOM     54 1HH2 ARG     5      51.124  38.459  49.750  1.00 99.99     0.174 HD
ATOM     55 2HH2 ARG     5      52.628  37.624  49.584  1.00 99.99     0.174 HD
ATOM     56  HE  ARG     5      54.290  38.004  51.132  1.00 99.99     0.178 HD
ENDBRANCH  47  48
ENDBRANCH  46  47
ENDBRANCH  45  46
ENDBRANCH  41  45
ENDBRANCH  39  41
ENDBRANCH  28  37
ENDBRANCH  26  28
ENDBRANCH  19  24
ENDBRANCH  16  19
ENDBRANCH  10  15
ENDBRANCH   8  10
ENDBRANCH   5   6
ENDBRANCH   1   5
TORSDOF 23
ENDMDL
MODEL 3
REMARK VINA RESULT:      -4.2      2.867      7.771
REMARK  23 active torsions:
REMARK  status: ('A' for Active; 'I' for Inactive)
REMARK    1  A    between atoms: N_1  and  CA_2 
REMARK    2  A    between atoms: CA_2  and  C_3 
REMARK       I    between atoms: C_3  and  N_8 
REMARK    3  A    between atoms: N_8  and  CA_9 
REMARK    4  A    between atoms: CA_9  and  CB_12 
REMARK    5  A    between atoms: CA_9  and  C_10 
REMARK       I    between atoms: C_10  and  N_17 
REMARK    6  A    between atoms: CB_12  and  CG_13 
REMARK    7  A    between atoms: N_17  and  CA_18 
REMARK    8  A    between atoms: CA_18  and  CB_21 
REMARK    9  A    between atoms: CA_18  and  C_19 
REMARK       I    between atoms: C_19  and  N_26 
REMARK   10  A    between atoms: CB_21  and  CG_22 
REMARK   11  A    between atoms: N_26  and  CA_27 
REMARK   12  A    between atoms: CA_27  and  CB_30 
REMARK   13  A    between atoms: CA_27  and  C_28 
REMARK       I    between atoms: C_28  and  N_39 
REMARK   14  A    between atoms: CB_30  and  CG_31 
REMARK   15  A    between atoms: CG_31  and  CD_32 
REMARK   16  A    between atoms: CD_32  and  CE_33 
REMARK   17  A    between atoms: CE_33  and  NZ_34 
REMARK   18  A    between atoms: N_39  and  CA_40 
REMARK   19  A    between atoms: CA_40  and  C_41 
REMARK   20  A    between atoms: CA_40  and  CB_43 
REMARK   21  A    between atoms: CB_43  and  CG_44 
REMARK   22  A    between atoms: CG_44  and  CD_45 
REMARK   23  A    between atoms: CD_45  and  NE_46 
REMARK       I    between atoms: NE_46  and  CZ_47 
REMARK       I    between atoms: CZ_47  and  NH1_48 
ROOT
ATOM      1  N   GLY     1      63.294  41.218  52.697  1.00  0.00    -0.055 N 
ATOM      2  H1  GLY     1      62.795  40.720  51.985  1.00 99.99     0.276 HD
ATOM      3  H2  GLY     1      63.993  41.781  52.296  1.00 99.99     0.276 HD
ATOM      4  H3  GLY     1      63.767  40.559  53.257  1.00 99.99     0.276 HD
ENDROOT
BRANCH   1   5
ATOM      5  CA  GLY     1      62.331  41.989  53.493  1.00  0.00     0.292 C 
BRANCH   5   6
ATOM      6  C   GLY     1      61.021  42.074  52.690  1.00  0.00     0.261 C 
ATOM      7  O   GLY     1      60.641  43.172  52.288  1.00  0.00    -0.270 OA
ATOM      8  N   LEU     2      60.184  41.069  52.935  1.00  0.00    -0.337 N 
ATOM      9  H   LEU     2      60.472  40.287  53.485  1.00 99.99     0.164 HD
BRANCH   8  10
ATOM     10  CA  LEU     2      58.852  40.914  52.316  1.00  0.00     0.159 C 
BRANCH  10  11
ATOM     11  CB  LEU     2      57.933  42.014  52.872  1.00  0.00     0.032 C 
BRANCH  11  12
ATOM     12  CG  LEU     2      56.475  41.852  52.416  1.00  0.00     0.002 C 
ATOM     13  CD2 LEU     2      55.850  43.198  52.032  1.00  0.00     0.000 C 
ATOM     14  CD1 LEU     2      55.649  41.190  53.519  1.00  0.00     0.000 C 
ENDBRANCH  11  12
ENDBRANCH  10  11
BRANCH  10  15
ATOM     15  C   LEU     2      58.839  40.891  50.771  1.00  0.00     0.251 C 
ATOM     16  N   LEU     3      58.858  42.070  50.140  1.00  0.00    -0.338 N 
ATOM     17  H   LEU     3      58.734  42.923  50.643  1.00 99.99     0.164 HD
ATOM     18  O   LEU     2      58.956  39.813  50.192  1.00  0.00    -0.271 OA
BRANCH  16  19
ATOM     19  CA  LEU     3      58.931  42.263  48.671  1.00  0.00     0.159 C 
BRANCH  19  20
ATOM     20  CB  LEU     3      57.568  42.777  48.174  1.00  0.00     0.032 C 
BRANCH  20  21
ATOM     21  CG  LEU     3      56.670  41.746  47.475  1.00  0.00     0.002 C 
ATOM     22  CD1 LEU     3      57.550  40.707  46.778  1.00  0.00     0.000 C 
ATOM     23  CD2 LEU     3      55.726  41.046  48.458  1.00  0.00     0.000 C 
ENDBRANCH  20  21
ENDBRANCH  19  20
BRANCH  19  24
ATOM     24  C   LEU     3      60.076  43.193  48.179  1.00  0.00     0.251 C 
ATOM     25  O   LEU     3      59.994  43.816  47.123  1.00  0.00    -0.271 OA
ATOM     26  N   LYS     4      61.102  43.313  49.017  1.00  0.00    -0.338 N 
ATOM     27  H   LYS     4      61.009  42.895  49.923  1.00 99.99     0.164 HD
BRANCH  26  28
ATOM     28  CA  LYS     4      62.362  44.081  48.838  1.00  0.00     0.159 C 
BRANCH  28  29
ATOM     29  CB  LYS     4      62.841  44.690  50.165  1.00  0.00     0.032 C 
BRANCH  29  30
ATOM     30  CG  LYS     4      62.753  46.213  50.259  1.00  0.00     0.004 C 
BRANCH  30  31
ATOM     31  CD  LYS     4      63.820  46.836  49.356  1.00  0.00     0.032 C 
BRANCH  31  32
ATOM     32  CE  LYS     4      65.220  46.353  49.732  1.00  0.00     0.206 C 
BRANCH  32  33
ATOM     33  NZ  LYS     4      65.981  45.963  48.535  1.00  0.00    -0.064 N 
ATOM     34  HZ3 LYS     4      66.650  46.677  48.327  1.00 99.99     0.275 HD
ATOM     35  HZ2 LYS     4      65.361  45.852  47.759  1.00 99.99     0.275 HD
ATOM     36  HZ1 LYS     4      66.459  45.103  48.710  1.00 99.99     0.275 HD
ENDBRANCH  32  33
ENDBRANCH  31  32
ENDBRANCH  30  31
ENDBRANCH  29  30
ENDBRANCH  28  29
BRANCH  28  37
ATOM     37  C   LYS     4      63.525  43.197  48.326  1.00  0.00     0.251 C 
ATOM     38  O   LYS     4      64.116  42.414  49.069  1.00  0.00    -0.271 OA
ATOM     39  N   ARG     5      63.843  43.348  47.043  1.00  0.00    -0.336 N 
ATOM     40  H   ARG     5      63.468  44.102  46.502  1.00 99.99     0.164 HD
BRANCH  39  41
ATOM     41  CA  ARG     5      64.826  42.536  46.298  1.00  0.00     0.168 C 
BRANCH  41  42
ATOM     42  C   ARG     5      66.031  43.395  45.898  1.00  0.00     0.206 C 
ATOM     43  OXT ARG     5      67.002  42.750  45.443  1.00 99.99    -0.646 OA
ATOM     44  O   ARG     5      65.962  44.634  46.048  1.00 99.99    -0.646 OA
ENDBRANCH  41  42
BRANCH  41  45
ATOM     45  CB  ARG     5      64.200  42.058  44.988  1.00  0.00     0.035 C 
BRANCH  45  46
ATOM     46  CG  ARG     5      62.928  42.792  44.568  1.00  0.00     0.027 C 
BRANCH  46  47
ATOM     47  CD  ARG     5      61.791  41.777  44.400  1.00  0.00     0.116 C 
BRANCH  47  48
ATOM     48  NE  ARG     5      60.484  42.437  44.615  1.00  0.00    -0.212 N 
ATOM     49  CZ  ARG     5      59.846  43.239  43.760  1.00  0.00     0.666 C 
ATOM     50  NH1 ARG     5      60.379  43.567  42.591  1.00  0.00    -0.235 N 
ATOM     51  NH2 ARG     5      58.639  43.704  44.050  1.00  0.00    -0.235 N 
ATOM     52 2HH1 ARG     5      61.282  43.210  42.362  1.00 99.99     0.174 HD
ATOM     53 1HH1 ARG     5      59.893  44.167  41.959  1.00 99.99     0.174 HD
ATOM     54 1HH2 ARG     5      58.175  44.301  43.399  1.00 99.99     0.174 HD
ATOM     55 2HH2 ARG     5      58.191  43.459  44.908  1.00 99.99     0.174 HD
ATOM     56  HE  ARG     5      60.088  42.309  45.522  1.00 99.99     0.178 HD
ENDBRANCH  47  48
ENDBRANCH  46  47
ENDBRANCH  45  46
ENDBRANCH  41  45
ENDBRANCH  39  41
ENDBRANCH  28  37
ENDBRANCH  26  28
ENDBRANCH  19  24
ENDBRANCH  16  19
ENDBRANCH  10  15
ENDBRANCH   8  10
ENDBRANCH   5   6
ENDBRANCH   1   5
TORSDOF 23
ENDMDL
MODEL 4
REMARK VINA RESULT:      -4.1      2.243      3.165
REMARK  23 active torsions:
REMARK  status: ('A' for Active; 'I' for Inactive)
REMARK    1  A    between atoms: N_1  and  CA_2 
REMARK    2  A    between atoms: CA_2  and  C_3 
REMARK       I    between atoms: C_3  and  N_8 
REMARK    3  A    between atoms: N_8  and  CA_9 
REMARK    4  A    between atoms: CA_9  and  CB_12 
REMARK    5  A    between atoms: CA_9  and  C_10 
REMARK       I    between atoms: C_10  and  N_17 
REMARK    6  A    between atoms: CB_12  and  CG_13 
REMARK    7  A    between atoms: N_17  and  CA_18 
REMARK    8  A    between atoms: CA_18  and  CB_21 
REMARK    9  A    between atoms: CA_18  and  C_19 
REMARK       I    between atoms: C_19  and  N_26 
REMARK   10  A    between atoms: CB_21  and  CG_22 
REMARK   11  A    between atoms: N_26  and  CA_27 
REMARK   12  A    between atoms: CA_27  and  CB_30 
REMARK   13  A    between atoms: CA_27  and  C_28 
REMARK       I    between atoms: C_28  and  N_39 
REMARK   14  A    between atoms: CB_30  and  CG_31 
REMARK   15  A    between atoms: CG_31  and  CD_32 
REMARK   16  A    between atoms: CD_32  and  CE_33 
REMARK   17  A    between atoms: CE_33  and  NZ_34 
REMARK   18  A    between atoms: N_39  and  CA_40 
REMARK   19  A    between atoms: CA_40  and  C_41 
REMARK   20  A    between atoms: CA_40  and  CB_43 
REMARK   21  A    between atoms: CB_43  and  CG_44 
REMARK   22  A    between atoms: CG_44  and  CD_45 
REMARK   23  A    between atoms: CD_45  and  NE_46 
REMARK       I    between atoms: NE_46  and  CZ_47 
REMARK       I    between atoms: CZ_47  and  NH1_48 
ROOT
ATOM      1  N   GLY     1      62.193  40.790  52.421  1.00  0.00    -0.055 N 
ATOM      2  H1  GLY     1      62.668  40.091  52.961  1.00 99.99     0.276 HD
ATOM      3  H2  GLY     1      61.229  40.604  52.393  1.00 99.99     0.276 HD
ATOM      4  H3  GLY     1      62.508  40.724  51.490  1.00 99.99     0.276 HD
ENDROOT
BRANCH   1   5
ATOM      5  CA  GLY     1      62.502  42.108  52.989  1.00  0.00     0.292 C 
BRANCH   5   6
ATOM      6  C   GLY     1      62.224  43.163  51.904  1.00  0.00     0.261 C 
ATOM      7  O   GLY     1      61.915  44.302  52.248  1.00  0.00    -0.270 OA
ATOM      8  N   LEU     2      61.854  42.638  50.739  1.00  0.00    -0.337 N 
ATOM      9  H   LEU     2      61.898  41.652  50.585  1.00 99.99     0.164 HD
BRANCH   8  10
ATOM     10  CA  LEU     2      61.509  43.421  49.534  1.00  0.00     0.159 C 
BRANCH  10  11
ATOM     11  CB  LEU     2      62.587  43.164  48.470  1.00  0.00     0.032 C 
BRANCH  11  12
ATOM     12  CG  LEU     2      63.835  44.038  48.670  1.00  0.00     0.002 C 
ATOM     13  CD2 LEU     2      63.463  45.468  49.078  1.00  0.00     0.000 C 
ATOM     14  CD1 LEU     2      64.672  44.062  47.391  1.00  0.00     0.000 C 
ENDBRANCH  11  12
ENDBRANCH  10  11
BRANCH  10  15
ATOM     15  C   LEU     2      60.089  43.182  48.974  1.00  0.00     0.251 C 
ATOM     16  N   LEU     3      59.780  43.770  47.814  1.00  0.00    -0.338 N 
ATOM     17  H   LEU     3      60.386  44.451  47.407  1.00 99.99     0.164 HD
ATOM     18  O   LEU     2      59.362  42.360  49.529  1.00  0.00    -0.271 OA
BRANCH  16  19
ATOM     19  CA  LEU     3      58.507  43.602  47.070  1.00  0.00     0.159 C 
BRANCH  19  20
ATOM     20  CB  LEU     3      58.446  42.167  46.516  1.00  0.00     0.032 C 
BRANCH  20  21
ATOM     21  CG  LEU     3      58.587  42.023  44.995  1.00  0.00     0.002 C 
ATOM     22  CD1 LEU     3      58.743  43.412  44.373  1.00  0.00     0.000 C 
ATOM     23  CD2 LEU     3      59.785  41.148  44.608  1.00  0.00     0.000 C 
ENDBRANCH  20  21
ENDBRANCH  19  20
BRANCH  19  24
ATOM     24  C   LEU     3      57.219  43.930  47.876  1.00  0.00     0.251 C 
ATOM     25  O   LEU     3      56.740  45.062  47.897  1.00  0.00    -0.271 OA
ATOM     26  N   LYS     4      56.647  42.887  48.471  1.00  0.00    -0.338 N 
ATOM     27  H   LYS     4      57.019  41.978  48.267  1.00 99.99     0.164 HD
BRANCH  26  28
ATOM     28  CA  LYS     4      55.443  42.860  49.342  1.00  0.00     0.159 C 
BRANCH  28  29
ATOM     29  CB  LYS     4      54.694  41.523  49.222  1.00  0.00     0.032 C 
BRANCH  29  30
ATOM     30  CG  LYS     4      55.325  40.498  48.280  1.00  0.00     0.004 C 
BRANCH  30  31
ATOM     31  CD  LYS     4      54.222  39.796  47.487  1.00  0.00     0.032 C 
BRANCH  31  32
ATOM     32  CE  LYS     4      54.651  39.536  46.043  1.00  0.00     0.206 C 
BRANCH  32  33
ATOM     33  NZ  LYS     4      54.266  38.181  45.617  1.00  0.00    -0.064 N 
ATOM     34  HZ3 LYS     4      54.386  37.552  46.385  1.00 99.99     0.275 HD
ATOM     35  HZ2 LYS     4      54.842  37.888  44.854  1.00 99.99     0.275 HD
ATOM     36  HZ1 LYS     4      53.307  38.181  45.336  1.00 99.99     0.275 HD
ENDBRANCH  32  33
ENDBRANCH  31  32
ENDBRANCH  30  31
ENDBRANCH  29  30
ENDBRANCH  28  29
BRANCH  28  37
ATOM     37  C   LYS     4      55.794  43.022  50.841  1.00  0.00     0.251 C 
ATOM     38  O   LYS     4      55.343  43.948  51.513  1.00  0.00    -0.271 OA
ATOM     39  N   ARG     5      56.616  42.104  51.343  1.00  0.00    -0.336 N 
ATOM     40  H   ARG     5      57.101  41.462  50.749  1.00 99.99     0.164 HD
BRANCH  39  41
ATOM     41  CA  ARG     5      56.996  41.974  52.765  1.00  0.00     0.168 C 
BRANCH  41  42
ATOM     42  C   ARG     5      58.509  42.152  52.928  1.00  0.00     0.206 C 
ATOM     43  OXT ARG     5      59.186  41.137  52.650  1.00 99.99    -0.646 OA
ATOM     44  O   ARG     5      58.947  43.258  53.312  1.00 99.99    -0.646 OA
ENDBRANCH  41  42
BRANCH  41  45
ATOM     45  CB  ARG     5      56.687  40.556  53.244  1.00  0.00     0.035 C 
BRANCH  45  46
ATOM     46  CG  ARG     5      55.818  40.466  54.497  1.00  0.00     0.027 C 
BRANCH  46  47
ATOM     47  CD  ARG     5      56.719  40.434  55.737  1.00  0.00     0.116 C 
BRANCH  47  48
ATOM     48  NE  ARG     5      55.898  40.507  56.966  1.00  0.00    -0.212 N 
ATOM     49  CZ  ARG     5      56.261  41.036  58.136  1.00  0.00     0.666 C 
ATOM     50  NH1 ARG     5      57.475  41.537  58.322  1.00  0.00    -0.235 N 
ATOM     51  NH2 ARG     5      55.396  41.104  59.138  1.00  0.00    -0.235 N 
ATOM     52 2HH1 ARG     5      58.126  41.499  57.568  1.00 99.99     0.174 HD
ATOM     53 1HH1 ARG     5      57.734  41.931  59.201  1.00 99.99     0.174 HD
ATOM     54 1HH2 ARG     5      55.682  41.505  60.006  1.00 99.99     0.174 HD
ATOM     55 2HH2 ARG     5      54.463  40.764  59.031  1.00 99.99     0.174 HD
ATOM     56  HE  ARG     5      55.014  40.049  56.912  1.00 99.99     0.178 HD
ENDBRANCH  47  48
ENDBRANCH  46  47
ENDBRANCH  45  46
ENDBRANCH  41  45
ENDBRANCH  39  41
ENDBRANCH  28  37
ENDBRANCH  26  28
ENDBRANCH  19  24
ENDBRANCH  16  19
ENDBRANCH  10  15
ENDBRANCH   8  10
ENDBRANCH   5   6
ENDBRANCH   1   5
TORSDOF 23
ENDMDL
MODEL 5
REMARK VINA RESULT:      -4.0      2.215      3.413
REMARK  23 active torsions:
REMARK  status: ('A' for Active; 'I' for Inactive)
REMARK    1  A    between atoms: N_1  and  CA_2 
REMARK    2  A    between atoms: CA_2  and  C_3 
REMARK       I    between atoms: C_3  and  N_8 
REMARK    3  A    between atoms: N_8  and  CA_9 
REMARK    4  A    between atoms: CA_9  and  CB_12 
REMARK    5  A    between atoms: CA_9  and  C_10 
REMARK       I    between atoms: C_10  and  N_17 
REMARK    6  A    between atoms: CB_12  and  CG_13 
REMARK    7  A    between atoms: N_17  and  CA_18 
REMARK    8  A    between atoms: CA_18  and  CB_21 
REMARK    9  A    between atoms: CA_18  and  C_19 
REMARK       I    between atoms: C_19  and  N_26 
REMARK   10  A    between atoms: CB_21  and  CG_22 
REMARK   11  A    between atoms: N_26  and  CA_27 
REMARK   12  A    between atoms: CA_27  and  CB_30 
REMARK   13  A    between atoms: CA_27  and  C_28 
REMARK       I    between atoms: C_28  and  N_39 
REMARK   14  A    between atoms: CB_30  and  CG_31 
REMARK   15  A    between atoms: CG_31  and  CD_32 
REMARK   16  A    between atoms: CD_32  and  CE_33 
REMARK   17  A    between atoms: CE_33  and  NZ_34 
REMARK   18  A    between atoms: N_39  and  CA_40 
REMARK   19  A    between atoms: CA_40  and  C_41 
REMARK   20  A    between atoms: CA_40  and  CB_43 
REMARK   21  A    between atoms: CB_43  and  CG_44 
REMARK   22  A    between atoms: CG_44  and  CD_45 
REMARK   23  A    between atoms: CD_45  and  NE_46 
REMARK       I    between atoms: NE_46  and  CZ_47 
REMARK       I    between atoms: CZ_47  and  NH1_48 
ROOT
ATOM      1  N   GLY     1      62.242  40.913  51.911  1.00  0.00    -0.055 N 
ATOM      2  H1  GLY     1      63.065  40.348  51.831  1.00 99.99     0.276 HD
ATOM      3  H2  GLY     1      61.566  40.457  52.461  1.00 99.99     0.276 HD
ATOM      4  H3  GLY     1      61.844  41.004  51.015  1.00 99.99     0.276 HD
ENDROOT
BRANCH   1   5
ATOM      5  CA  GLY     1      62.624  42.224  52.452  1.00  0.00     0.292 C 
BRANCH   5   6
ATOM      6  C   GLY     1      62.445  43.264  51.333  1.00  0.00     0.261 C 
ATOM      7  O   GLY     1      61.318  43.694  51.097  1.00  0.00    -0.270 OA
ATOM      8  N   LEU     2      63.406  43.224  50.415  1.00  0.00    -0.337 N 
ATOM      9  H   LEU     2      64.218  42.656  50.547  1.00 99.99     0.164 HD
BRANCH   8  10
ATOM     10  CA  LEU     2      63.470  44.097  49.224  1.00  0.00     0.159 C 
BRANCH  10  11
ATOM     11  CB  LEU     2      64.935  44.508  49.008  1.00  0.00     0.032 C 
BRANCH  11  12
ATOM     12  CG  LEU     2      65.116  46.032  48.930  1.00  0.00     0.002 C 
ATOM     13  CD2 LEU     2      66.246  46.515  49.846  1.00  0.00     0.000 C 
ATOM     14  CD1 LEU     2      63.810  46.737  49.297  1.00  0.00     0.000 C 
ENDBRANCH  11  12
ENDBRANCH  10  11
BRANCH  10  15
ATOM     15  C   LEU     2      62.850  43.508  47.938  1.00  0.00     0.251 C 
ATOM     16  N   LEU     3      61.559  43.165  47.981  1.00  0.00    -0.338 N 
ATOM     17  H   LEU     3      61.060  43.151  48.845  1.00 99.99     0.164 HD
ATOM     18  O   LEU     2      63.514  43.510  46.903  1.00  0.00    -0.271 OA
BRANCH  16  19
ATOM     19  CA  LEU     3      60.759  42.660  46.837  1.00  0.00     0.159 C 
BRANCH  19  20
ATOM     20  CB  LEU     3      60.875  41.125  46.795  1.00  0.00     0.032 C 
BRANCH  20  21
ATOM     21  CG  LEU     3      61.178  40.433  48.131  1.00  0.00     0.002 C 
ATOM     22  CD1 LEU     3      60.078  39.411  48.426  1.00  0.00     0.000 C 
ATOM     23  CD2 LEU     3      62.541  39.733  48.120  1.00  0.00     0.000 C 
ENDBRANCH  20  21
ENDBRANCH  19  20
BRANCH  19  24
ATOM     24  C   LEU     3      59.267  43.094  46.826  1.00  0.00     0.251 C 
ATOM     25  O   LEU     3      58.850  43.958  46.057  1.00  0.00    -0.271 OA
ATOM     26  N   LYS     4      58.477  42.414  47.653  1.00  0.00    -0.338 N 
ATOM     27  H   LYS     4      58.874  41.622  48.123  1.00 99.99     0.164 HD
BRANCH  26  28
ATOM     28  CA  LYS     4      57.026  42.602  47.915  1.00  0.00     0.159 C 
BRANCH  28  29
ATOM     29  CB  LYS     4      56.231  41.325  47.601  1.00  0.00     0.032 C 
BRANCH  29  30
ATOM     30  CG  LYS     4      56.534  40.676  46.250  1.00  0.00     0.004 C 
BRANCH  30  31
ATOM     31  CD  LYS     4      55.220  40.278  45.576  1.00  0.00     0.032 C 
BRANCH  31  32
ATOM     32  CE  LYS     4      55.292  38.861  45.006  1.00  0.00     0.206 C 
BRANCH  32  33
ATOM     33  NZ  LYS     4      54.797  38.827  43.621  1.00  0.00    -0.064 N 
ATOM     34  HZ3 LYS     4      53.828  38.575  43.628  1.00 99.99     0.275 HD
ATOM     35  HZ2 LYS     4      55.311  38.153  43.092  1.00 99.99     0.275 HD
ATOM     36  HZ1 LYS     4      54.900  39.731  43.209  1.00 99.99     0.275 HD
ENDBRANCH  32  33
ENDBRANCH  31  32
ENDBRANCH  30  31
ENDBRANCH  29  30
ENDBRANCH  28  29
BRANCH  28  37
ATOM     37  C   LYS     4      56.732  42.937  49.396  1.00  0.00     0.251 C 
ATOM     38  O   LYS     4      55.909  43.796  49.713  1.00  0.00    -0.271 OA
ATOM     39  N   ARG     5      57.430  42.247  50.294  1.00  0.00    -0.336 N 
ATOM     40  H   ARG     5      58.207  41.679  50.021  1.00 99.99     0.164 HD
BRANCH  39  41
ATOM     41  CA  ARG     5      57.240  42.298  51.758  1.00  0.00     0.168 C 
BRANCH  41  42
ATOM     42  C   ARG     5      58.597  42.280  52.471  1.00  0.00     0.206 C 
ATOM     43  OXT ARG     5      59.297  41.271  52.232  1.00 99.99    -0.646 OA
ATOM     44  O   ARG     5      58.899  43.239  53.213  1.00 99.99    -0.646 OA
ENDBRANCH  41  42
BRANCH  41  45
ATOM     45  CB  ARG     5      56.509  41.038  52.219  1.00  0.00     0.035 C 
BRANCH  45  46
ATOM     46  CG  ARG     5      56.002  40.131  51.099  1.00  0.00     0.027 C 
BRANCH  46  47
ATOM     47  CD  ARG     5      54.535  39.776  51.360  1.00  0.00     0.116 C 
BRANCH  47  48
ATOM     48  NE  ARG     5      53.807  39.639  50.079  1.00  0.00    -0.212 N 
ATOM     49  CZ  ARG     5      53.270  40.626  49.359  1.00  0.00     0.666 C 
ATOM     50  NH1 ARG     5      53.306  41.885  49.775  1.00  0.00    -0.235 N 
ATOM     51  NH2 ARG     5      52.709  40.371  48.185  1.00  0.00    -0.235 N 
ATOM     52 2HH1 ARG     5      53.738  42.084  50.652  1.00 99.99     0.174 HD
ATOM     53 1HH1 ARG     5      52.902  42.614  49.228  1.00 99.99     0.174 HD
ATOM     54 1HH2 ARG     5      52.314  41.120  47.658  1.00 99.99     0.174 HD
ATOM     55 2HH2 ARG     5      52.685  39.441  47.823  1.00 99.99     0.174 HD
ATOM     56  HE  ARG     5      53.658  38.701  49.774  1.00 99.99     0.178 HD
ENDBRANCH  47  48
ENDBRANCH  46  47
ENDBRANCH  45  46
ENDBRANCH  41  45
ENDBRANCH  39  41
ENDBRANCH  28  37
ENDBRANCH  26  28
ENDBRANCH  19  24
ENDBRANCH  16  19
ENDBRANCH  10  15
ENDBRANCH   8  10
ENDBRANCH   5   6
ENDBRANCH   1   5
TORSDOF 23
ENDMDL
MODEL 6
REMARK VINA RESULT:      -4.0      2.475      3.629
REMARK  23 active torsions:
REMARK  status: ('A' for Active; 'I' for Inactive)
REMARK    1  A    between atoms: N_1  and  CA_2 
REMARK    2  A    between atoms: CA_2  and  C_3 
REMARK       I    between atoms: C_3  and  N_8 
REMARK    3  A    between atoms: N_8  and  CA_9 
REMARK    4  A    between atoms: CA_9  and  CB_12 
REMARK    5  A    between atoms: CA_9  and  C_10 
REMARK       I    between atoms: C_10  and  N_17 
REMARK    6  A    between atoms: CB_12  and  CG_13 
REMARK    7  A    between atoms: N_17  and  CA_18 
REMARK    8  A    between atoms: CA_18  and  CB_21 
REMARK    9  A    between atoms: CA_18  and  C_19 
REMARK       I    between atoms: C_19  and  N_26 
REMARK   10  A    between atoms: CB_21  and  CG_22 
REMARK   11  A    between atoms: N_26  and  CA_27 
REMARK   12  A    between atoms: CA_27  and  CB_30 
REMARK   13  A    between atoms: CA_27  and  C_28 
REMARK       I    between atoms: C_28  and  N_39 
REMARK   14  A    between atoms: CB_30  and  CG_31 
REMARK   15  A    between atoms: CG_31  and  CD_32 
REMARK   16  A    between atoms: CD_32  and  CE_33 
REMARK   17  A    between atoms: CE_33  and  NZ_34 
REMARK   18  A    between atoms: N_39  and  CA_40 
REMARK   19  A    between atoms: CA_40  and  C_41 
REMARK   20  A    between atoms: CA_40  and  CB_43 
REMARK   21  A    between atoms: CB_43  and  CG_44 
REMARK   22  A    between atoms: CG_44  and  CD_45 
REMARK   23  A    between atoms: CD_45  and  NE_46 
REMARK       I    between atoms: NE_46  and  CZ_47 
REMARK       I    between atoms: CZ_47  and  NH1_48 
ROOT
ATOM      1  N   GLY     1      62.179  40.903  51.824  1.00  0.00    -0.055 N 
ATOM      2  H1  GLY     1      63.009  40.349  51.725  1.00 99.99     0.276 HD
ATOM      3  H2  GLY     1      61.524  40.438  52.391  1.00 99.99     0.276 HD
ATOM      4  H3  GLY     1      61.758  40.985  50.937  1.00 99.99     0.276 HD
ENDROOT
BRANCH   1   5
ATOM      5  CA  GLY     1      62.556  42.220  52.352  1.00  0.00     0.292 C 
BRANCH   5   6
ATOM      6  C   GLY     1      62.385  43.246  51.218  1.00  0.00     0.261 C 
ATOM      7  O   GLY     1      61.253  43.621  50.922  1.00  0.00    -0.270 OA
ATOM      8  N   LEU     2      63.393  43.248  50.350  1.00  0.00    -0.337 N 
ATOM      9  H   LEU     2      64.222  42.720  50.528  1.00 99.99     0.164 HD
BRANCH   8  10
ATOM     10  CA  LEU     2      63.477  44.118  49.159  1.00  0.00     0.159 C 
BRANCH  10  11
ATOM     11  CB  LEU     2      64.932  44.589  49.010  1.00  0.00     0.032 C 
BRANCH  11  12
ATOM     12  CG  LEU     2      65.061  46.120  49.020  1.00  0.00     0.002 C 
ATOM     13  CD2 LEU     2      66.137  46.589  50.006  1.00  0.00     0.000 C 
ATOM     14  CD1 LEU     2      63.718  46.760  49.372  1.00  0.00     0.000 C 
ENDBRANCH  11  12
ENDBRANCH  10  11
BRANCH  10  15
ATOM     15  C   LEU     2      62.943  43.498  47.848  1.00  0.00     0.251 C 
ATOM     16  N   LEU     3      61.642  43.196  47.798  1.00  0.00    -0.338 N 
ATOM     17  H   LEU     3      61.075  43.230  48.619  1.00 99.99     0.164 HD
ATOM     18  O   LEU     2      63.688  43.441  46.872  1.00  0.00    -0.271 OA
BRANCH  16  19
ATOM     19  CA  LEU     3      60.921  42.671  46.612  1.00  0.00     0.159 C 
BRANCH  19  20
ATOM     20  CB  LEU     3      61.056  41.138  46.593  1.00  0.00     0.032 C 
BRANCH  20  21
ATOM     21  CG  LEU     3      61.169  40.451  47.960  1.00  0.00     0.002 C 
ATOM     22  CD1 LEU     3      60.056  39.408  48.090  1.00  0.00     0.000 C 
ATOM     23  CD2 LEU     3      62.532  39.777  48.155  1.00  0.00     0.000 C 
ENDBRANCH  20  21
ENDBRANCH  19  20
BRANCH  19  24
ATOM     24  C   LEU     3      59.427  43.088  46.504  1.00  0.00     0.251 C 
ATOM     25  O   LEU     3      59.031  43.853  45.627  1.00  0.00    -0.271 OA
ATOM     26  N   LYS     4      58.615  42.501  47.379  1.00  0.00    -0.338 N 
ATOM     27  H   LYS     4      59.001  41.773  47.949  1.00 99.99     0.164 HD
BRANCH  26  28
ATOM     28  CA  LYS     4      57.155  42.704  47.572  1.00  0.00     0.159 C 
BRANCH  28  29
ATOM     29  CB  LYS     4      56.365  41.424  47.259  1.00  0.00     0.032 C 
BRANCH  29  30
ATOM     30  CG  LYS     4      56.596  40.831  45.869  1.00  0.00     0.004 C 
BRANCH  30  31
ATOM     31  CD  LYS     4      55.273  40.285  45.329  1.00  0.00     0.032 C 
BRANCH  31  32
ATOM     32  CE  LYS     4      55.443  38.878  44.756  1.00  0.00     0.206 C 
BRANCH  32  33
ATOM     33  NZ  LYS     4      54.735  38.744  43.473  1.00  0.00    -0.064 N 
ATOM     34  HZ3 LYS     4      54.524  39.656  43.121  1.00 99.99     0.275 HD
ATOM     35  HZ2 LYS     4      53.885  38.234  43.604  1.00 99.99     0.275 HD
ATOM     36  HZ1 LYS     4      55.320  38.265  42.819  1.00 99.99     0.275 HD
ENDBRANCH  32  33
ENDBRANCH  31  32
ENDBRANCH  30  31
ENDBRANCH  29  30
ENDBRANCH  28  29
BRANCH  28  37
ATOM     37  C   LYS     4      56.799  43.084  49.029  1.00  0.00     0.251 C 
ATOM     38  O   LYS     4      56.007  43.990  49.285  1.00  0.00    -0.271 OA
ATOM     39  N   ARG     5      57.410  42.376  49.975  1.00  0.00    -0.336 N 
ATOM     40  H   ARG     5      58.169  41.764  49.755  1.00 99.99     0.164 HD
BRANCH  39  41
ATOM     41  CA  ARG     5      57.143  42.466  51.425  1.00  0.00     0.168 C 
BRANCH  41  42
ATOM     42  C   ARG     5      58.440  42.262  52.217  1.00  0.00     0.206 C 
ATOM     43  OXT ARG     5      59.084  41.235  51.907  1.00 99.99    -0.646 OA
ATOM     44  O   ARG     5      58.754  43.106  53.084  1.00 99.99    -0.646 OA
ENDBRANCH  41  42
BRANCH  41  45
ATOM     45  CB  ARG     5      56.216  41.325  51.842  1.00  0.00     0.035 C 
BRANCH  45  46
ATOM     46  CG  ARG     5      55.758  41.357  53.299  1.00  0.00     0.027 C 
BRANCH  46  47
ATOM     47  CD  ARG     5      56.020  39.990  53.942  1.00  0.00     0.116 C 
BRANCH  47  48
ATOM     48  NE  ARG     5      56.414  40.160  55.358  1.00  0.00    -0.212 N 
ATOM     49  CZ  ARG     5      57.642  40.402  55.820  1.00  0.00     0.666 C 
ATOM     50  NH1 ARG     5      58.686  40.475  55.005  1.00  0.00    -0.235 N 
ATOM     51  NH2 ARG     5      57.843  40.609  57.114  1.00  0.00    -0.235 N 
ATOM     52 2HH1 ARG     5      58.538  40.332  54.029  1.00 99.99     0.174 HD
ATOM     53 1HH1 ARG     5      59.599  40.657  55.362  1.00 99.99     0.174 HD
ATOM     54 1HH2 ARG     5      58.767  40.791  57.443  1.00 99.99     0.174 HD
ATOM     55 2HH2 ARG     5      57.080  40.591  57.758  1.00 99.99     0.174 HD
ATOM     56  HE  ARG     5      55.684  40.009  56.022  1.00 99.99     0.178 HD
ENDBRANCH  47  48
ENDBRANCH  46  47
ENDBRANCH  45  46
ENDBRANCH  41  45
ENDBRANCH  39  41
ENDBRANCH  28  37
ENDBRANCH  26  28
ENDBRANCH  19  24
ENDBRANCH  16  19
ENDBRANCH  10  15
ENDBRANCH   8  10
ENDBRANCH   5   6
ENDBRANCH   1   5
TORSDOF 23
ENDMDL
MODEL 7
REMARK VINA RESULT:      -4.0      2.521      3.987
REMARK  23 active torsions:
REMARK  status: ('A' for Active; 'I' for Inactive)
REMARK    1  A    between atoms: N_1  and  CA_2 
REMARK    2  A    between atoms: CA_2  and  C_3 
REMARK       I    between atoms: C_3  and  N_8 
REMARK    3  A    between atoms: N_8  and  CA_9 
REMARK    4  A    between atoms: CA_9  and  CB_12 
REMARK    5  A    between atoms: CA_9  and  C_10 
REMARK       I    between atoms: C_10  and  N_17 
REMARK    6  A    between atoms: CB_12  and  CG_13 
REMARK    7  A    between atoms: N_17  and  CA_18 
REMARK    8  A    between atoms: CA_18  and  CB_21 
REMARK    9  A    between atoms: CA_18  and  C_19 
REMARK       I    between atoms: C_19  and  N_26 
REMARK   10  A    between atoms: CB_21  and  CG_22 
REMARK   11  A    between atoms: N_26  and  CA_27 
REMARK   12  A    between atoms: CA_27  and  CB_30 
REMARK   13  A    between atoms: CA_27  and  C_28 
REMARK       I    between atoms: C_28  and  N_39 
REMARK   14  A    between atoms: CB_30  and  CG_31 
REMARK   15  A    between atoms: CG_31  and  CD_32 
REMARK   16  A    between atoms: CD_32  and  CE_33 
REMARK   17  A    between atoms: CE_33  and  NZ_34 
REMARK   18  A    between atoms: N_39  and  CA_40 
REMARK   19  A    between atoms: CA_40  and  C_41 
REMARK   20  A    between atoms: CA_40  and  CB_43 
REMARK   21  A    between atoms: CB_43  and  CG_44 
REMARK   22  A    between atoms: CG_44  and  CD_45 
REMARK   23  A    between atoms: CD_45  and  NE_46 
REMARK       I    between atoms: NE_46  and  CZ_47 
REMARK       I    between atoms: CZ_47  and  NH1_48 
ROOT
ATOM      1  N   GLY     1      63.352  41.143  51.945  1.00  0.00    -0.055 N 
ATOM      2  H1  GLY     1      63.803  40.701  52.724  1.00 99.99     0.276 HD
ATOM      3  H2  GLY     1      62.843  40.482  51.424  1.00 99.99     0.276 HD
ATOM      4  H3  GLY     1      64.050  41.484  51.340  1.00 99.99     0.276 HD
ENDROOT
BRANCH   1   5
ATOM      5  CA  GLY     1      62.512  42.237  52.449  1.00  0.00     0.292 C 
BRANCH   5   6
ATOM      6  C   GLY     1      62.671  43.430  51.492  1.00  0.00     0.261 C 
ATOM      7  O   GLY     1      61.959  44.419  51.651  1.00  0.00    -0.270 OA
ATOM      8  N   LEU     2      63.183  43.095  50.310  1.00  0.00    -0.337 N 
ATOM      9  H   LEU     2      63.542  42.177  50.150  1.00 99.99     0.164 HD
BRANCH   8  10
ATOM     10  CA  LEU     2      63.425  44.040  49.200  1.00  0.00     0.159 C 
BRANCH  10  11
ATOM     11  CB  LEU     2      64.857  44.580  49.332  1.00  0.00     0.032 C 
BRANCH  11  12
ATOM     12  CG  LEU     2      64.899  46.014  49.883  1.00  0.00     0.002 C 
ATOM     13  CD2 LEU     2      63.789  46.883  49.281  1.00  0.00     0.000 C 
ATOM     14  CD1 LEU     2      66.263  46.645  49.604  1.00  0.00     0.000 C 
ENDBRANCH  11  12
ENDBRANCH  10  11
BRANCH  10  15
ATOM     15  C   LEU     2      63.158  43.479  47.785  1.00  0.00     0.251 C 
ATOM     16  N   LEU     3      61.900  43.137  47.487  1.00  0.00    -0.338 N 
ATOM     17  H   LEU     3      61.197  43.104  48.194  1.00 99.99     0.164 HD
ATOM     18  O   LEU     2      64.066  43.503  46.955  1.00  0.00    -0.271 OA
BRANCH  16  19
ATOM     19  CA  LEU     3      61.424  42.658  46.167  1.00  0.00     0.159 C 
BRANCH  19  20
ATOM     20  CB  LEU     3      61.568  41.125  46.117  1.00  0.00     0.032 C 
BRANCH  20  21
ATOM     21  CG  LEU     3      61.900  40.521  44.746  1.00  0.00     0.002 C 
ATOM     22  CD1 LEU     3      62.855  39.341  44.938  1.00  0.00     0.000 C 
ATOM     23  CD2 LEU     3      60.644  40.052  44.005  1.00  0.00     0.000 C 
ENDBRANCH  20  21
ENDBRANCH  19  20
BRANCH  19  24
ATOM     24  C   LEU     3      59.976  43.080  45.789  1.00  0.00     0.251 C 
ATOM     25  O   LEU     3      59.740  43.760  44.793  1.00  0.00    -0.271 OA
ATOM     26  N   LYS     4      59.023  42.593  46.579  1.00  0.00    -0.338 N 
ATOM     27  H   LYS     4      59.297  41.919  47.270  1.00 99.99     0.164 HD
BRANCH  26  28
ATOM     28  CA  LYS     4      57.558  42.832  46.523  1.00  0.00     0.159 C 
BRANCH  28  29
ATOM     29  CB  LYS     4      56.780  41.516  46.371  1.00  0.00     0.032 C 
BRANCH  29  30
ATOM     30  CG  LYS     4      56.912  40.826  45.014  1.00  0.00     0.004 C 
BRANCH  30  31
ATOM     31  CD  LYS     4      56.468  39.368  45.143  1.00  0.00     0.032 C 
BRANCH  31  32
ATOM     32  CE  LYS     4      54.981  39.208  44.826  1.00  0.00     0.206 C 
BRANCH  32  33
ATOM     33  NZ  LYS     4      54.786  38.743  43.444  1.00  0.00    -0.064 N 
ATOM     34  HZ3 LYS     4      55.679  38.641  43.006  1.00 99.99     0.275 HD
ATOM     35  HZ2 LYS     4      54.240  39.408  42.935  1.00 99.99     0.275 HD
ATOM     36  HZ1 LYS     4      54.320  37.859  43.453  1.00 99.99     0.275 HD
ENDBRANCH  32  33
ENDBRANCH  31  32
ENDBRANCH  30  31
ENDBRANCH  29  30
ENDBRANCH  28  29
BRANCH  28  37
ATOM     37  C   LYS     4      57.019  43.504  47.809  1.00  0.00     0.251 C 
ATOM     38  O   LYS     4      56.920  44.726  47.907  1.00  0.00    -0.271 OA
ATOM     39  N   ARG     5      56.683  42.675  48.795  1.00  0.00    -0.336 N 
ATOM     40  H   ARG     5      56.925  41.706  48.761  1.00 99.99     0.164 HD
BRANCH  39  41
ATOM     41  CA  ARG     5      56.034  43.065  50.063  1.00  0.00     0.168 C 
BRANCH  41  42
ATOM     42  C   ARG     5      56.879  42.604  51.256  1.00  0.00     0.206 C 
ATOM     43  OXT ARG     5      56.893  43.398  52.222  1.00 99.99    -0.646 OA
ATOM     44  O   ARG     5      57.472  41.506  51.184  1.00 99.99    -0.646 OA
ENDBRANCH  41  42
BRANCH  41  45
ATOM     45  CB  ARG     5      54.696  42.336  50.193  1.00  0.00     0.035 C 
BRANCH  45  46
ATOM     46  CG  ARG     5      54.512  41.141  49.259  1.00  0.00     0.027 C 
BRANCH  46  47
ATOM     47  CD  ARG     5      54.639  39.845  50.067  1.00  0.00     0.116 C 
BRANCH  47  48
ATOM     48  NE  ARG     5      53.864  39.949  51.324  1.00  0.00    -0.212 N 
ATOM     49  CZ  ARG     5      52.716  39.330  51.606  1.00  0.00     0.666 C 
ATOM     50  NH1 ARG     5      52.113  38.552  50.716  1.00  0.00    -0.235 N 
ATOM     51  NH2 ARG     5      52.165  39.454  52.805  1.00  0.00    -0.235 N 
ATOM     52 2HH1 ARG     5      52.531  38.446  49.817  1.00 99.99     0.174 HD
ATOM     53 1HH1 ARG     5      51.256  38.093  50.939  1.00 99.99     0.174 HD
ATOM     54 1HH2 ARG     5      51.307  38.982  53.000  1.00 99.99     0.174 HD
ATOM     55 2HH2 ARG     5      52.600  40.007  53.512  1.00 99.99     0.174 HD
ATOM     56  HE  ARG     5      54.218  40.605  51.987  1.00 99.99     0.178 HD
ENDBRANCH  47  48
ENDBRANCH  46  47
ENDBRANCH  45  46
ENDBRANCH  41  45
ENDBRANCH  39  41
ENDBRANCH  28  37
ENDBRANCH  26  28
ENDBRANCH  19  24
ENDBRANCH  16  19
ENDBRANCH  10  15
ENDBRANCH   8  10
ENDBRANCH   5   6
ENDBRANCH   1   5
TORSDOF 23
ENDMDL
MODEL 8
REMARK VINA RESULT:      -3.9      2.179      8.010
REMARK  23 active torsions:
REMARK  status: ('A' for Active; 'I' for Inactive)
REMARK    1  A    between atoms: N_1  and  CA_2 
REMARK    2  A    between atoms: CA_2  and  C_3 
REMARK       I    between atoms: C_3  and  N_8 
REMARK    3  A    between atoms: N_8  and  CA_9 
REMARK    4  A    between atoms: CA_9  and  CB_12 
REMARK    5  A    between atoms: CA_9  and  C_10 
REMARK       I    between atoms: C_10  and  N_17 
REMARK    6  A    between atoms: CB_12  and  CG_13 
REMARK    7  A    between atoms: N_17  and  CA_18 
REMARK    8  A    between atoms: CA_18  and  CB_21 
REMARK    9  A    between atoms: CA_18  and  C_19 
REMARK       I    between atoms: C_19  and  N_26 
REMARK   10  A    between atoms: CB_21  and  CG_22 
REMARK   11  A    between atoms: N_26  and  CA_27 
REMARK   12  A    between atoms: CA_27  and  CB_30 
REMARK   13  A    between atoms: CA_27  and  C_28 
REMARK       I    between atoms: C_28  and  N_39 
REMARK   14  A    between atoms: CB_30  and  CG_31 
REMARK   15  A    between atoms: CG_31  and  CD_32 
REMARK   16  A    between atoms: CD_32  and  CE_33 
REMARK   17  A    between atoms: CE_33  and  NZ_34 
REMARK   18  A    between atoms: N_39  and  CA_40 
REMARK   19  A    between atoms: CA_40  and  C_41 
REMARK   20  A    between atoms: CA_40  and  CB_43 
REMARK   21  A    between atoms: CB_43  and  CG_44 
REMARK   22  A    between atoms: CG_44  and  CD_45 
REMARK   23  A    between atoms: CD_45  and  NE_46 
REMARK       I    between atoms: NE_46  and  CZ_47 
REMARK       I    between atoms: CZ_47  and  NH1_48 
ROOT
ATOM      1  N   GLY     1      58.285  42.538  47.102  1.00  0.00    -0.055 N 
ATOM      2  H1  GLY     1      58.889  42.585  47.900  1.00 99.99     0.276 HD
ATOM      3  H2  GLY     1      57.618  41.826  47.220  1.00 99.99     0.276 HD
ATOM      4  H3  GLY     1      58.826  42.274  46.323  1.00 99.99     0.276 HD
ENDROOT
BRANCH   1   5
ATOM      5  CA  GLY     1      57.676  43.859  46.897  1.00  0.00     0.292 C 
BRANCH   5   6
ATOM      6  C   GLY     1      56.584  44.043  47.965  1.00  0.00     0.261 C 
ATOM      7  O   GLY     1      56.154  45.173  48.187  1.00  0.00    -0.270 OA
ATOM      8  N   LEU     2      56.569  43.076  48.879  1.00  0.00    -0.337 N 
ATOM      9  H   LEU     2      57.135  42.260  48.769  1.00 99.99     0.164 HD
BRANCH   8  10
ATOM     10  CA  LEU     2      55.638  43.014  50.024  1.00  0.00     0.159 C 
BRANCH  10  11
ATOM     11  CB  LEU     2      54.414  42.184  49.604  1.00  0.00     0.032 C 
BRANCH  11  12
ATOM     12  CG  LEU     2      54.757  40.705  49.369  1.00  0.00     0.002 C 
ATOM     13  CD2 LEU     2      54.460  40.279  47.927  1.00  0.00     0.000 C 
ATOM     14  CD1 LEU     2      53.976  39.823  50.344  1.00  0.00     0.000 C 
ENDBRANCH  11  12
ENDBRANCH  10  11
BRANCH  10  15
ATOM     15  C   LEU     2      56.248  42.496  51.346  1.00  0.00     0.251 C 
ATOM     16  N   LEU     3      57.359  41.756  51.259  1.00  0.00    -0.338 N 
ATOM     17  H   LEU     3      57.690  41.429  50.377  1.00 99.99     0.164 HD
ATOM     18  O   LEU     2      55.784  42.896  52.412  1.00  0.00    -0.271 OA
BRANCH  16  19
ATOM     19  CA  LEU     3      58.141  41.234  52.407  1.00  0.00     0.159 C 
BRANCH  19  20
ATOM     20  CB  LEU     3      58.681  39.839  52.041  1.00  0.00     0.032 C 
BRANCH  20  21
ATOM     21  CG  LEU     3      57.629  38.774  51.701  1.00  0.00     0.002 C 
ATOM     22  CD1 LEU     3      57.797  38.352  50.240  1.00  0.00     0.000 C 
ATOM     23  CD2 LEU     3      57.741  37.545  52.609  1.00  0.00     0.000 C 
ENDBRANCH  20  21
ENDBRANCH  19  20
BRANCH  19  24
ATOM     24  C   LEU     3      59.295  42.153  52.897  1.00  0.00     0.251 C 
ATOM     25  O   LEU     3      59.078  43.255  53.395  1.00  0.00    -0.271 OA
ATOM     26  N   LYS     4      60.513  41.626  52.802  1.00  0.00    -0.338 N 
ATOM     27  H   LYS     4      60.579  40.662  52.533  1.00 99.99     0.164 HD
BRANCH  26  28
ATOM     28  CA  LYS     4      61.822  42.244  53.139  1.00  0.00     0.159 C 
BRANCH  28  29
ATOM     29  CB  LYS     4      62.964  41.219  53.058  1.00  0.00     0.032 C 
BRANCH  29  30
ATOM     30  CG  LYS     4      63.393  40.606  54.391  1.00  0.00     0.004 C 
BRANCH  30  31
ATOM     31  CD  LYS     4      63.178  41.628  55.508  1.00  0.00     0.032 C 
BRANCH  31  32
ATOM     32  CE  LYS     4      64.036  41.306  56.732  1.00  0.00     0.206 C 
BRANCH  32  33
ATOM     33  NZ  LYS     4      64.624  42.530  57.298  1.00  0.00    -0.064 N 
ATOM     34  HZ3 LYS     4      64.102  42.797  58.110  1.00 99.99     0.275 HD
ATOM     35  HZ2 LYS     4      64.591  43.267  56.625  1.00 99.99     0.275 HD
ATOM     36  HZ1 LYS     4      65.572  42.353  57.559  1.00 99.99     0.275 HD
ENDBRANCH  32  33
ENDBRANCH  31  32
ENDBRANCH  30  31
ENDBRANCH  29  30
ENDBRANCH  28  29
BRANCH  28  37
ATOM     37  C   LYS     4      62.202  43.388  52.168  1.00  0.00     0.251 C 
ATOM     38  O   LYS     4      61.958  44.565  52.430  1.00  0.00    -0.271 OA
ATOM     39  N   ARG     5      62.798  43.012  51.039  1.00  0.00    -0.336 N 
ATOM     40  H   ARG     5      62.836  42.050  50.770  1.00 99.99     0.164 HD
BRANCH  39  41
ATOM     41  CA  ARG     5      63.363  43.920  50.021  1.00  0.00     0.168 C 
BRANCH  41  42
ATOM     42  C   ARG     5      62.245  44.724  49.347  1.00  0.00     0.206 C 
ATOM     43  OXT ARG     5      61.424  44.035  48.701  1.00 99.99    -0.646 OA
ATOM     44  O   ARG     5      62.230  45.966  49.486  1.00 99.99    -0.646 OA
ENDBRANCH  41  42
BRANCH  41  45
ATOM     45  CB  ARG     5      64.011  43.095  48.909  1.00  0.00     0.035 C 
BRANCH  45  46
ATOM     46  CG  ARG     5      65.033  43.842  48.054  1.00  0.00     0.027 C 
BRANCH  46  47
ATOM     47  CD  ARG     5      64.619  43.757  46.581  1.00  0.00     0.116 C 
BRANCH  47  48
ATOM     48  NE  ARG     5      63.246  43.217  46.469  1.00  0.00    -0.212 N 
ATOM     49  CZ  ARG     5      62.631  42.829  45.350  1.00  0.00     0.666 C 
ATOM     50  NH1 ARG     5      63.218  42.939  44.165  1.00  0.00    -0.235 N 
ATOM     51  NH2 ARG     5      61.422  42.289  45.401  1.00  0.00    -0.235 N 
ATOM     52 2HH1 ARG     5      64.133  43.333  44.122  1.00 99.99     0.174 HD
ATOM     53 1HH1 ARG     5      62.749  42.645  43.335  1.00 99.99     0.174 HD
ATOM     54 1HH2 ARG     5      60.977  42.002  44.555  1.00 99.99     0.174 HD
ATOM     55 2HH2 ARG     5      60.956  42.163  46.275  1.00 99.99     0.174 HD
ATOM     56  HE  ARG     5      62.721  43.212  47.318  1.00 99.99     0.178 HD
ENDBRANCH  47  48
ENDBRANCH  46  47
ENDBRANCH  45  46
ENDBRANCH  41  45
ENDBRANCH  39  41
ENDBRANCH  28  37
ENDBRANCH  26  28
ENDBRANCH  19  24
ENDBRANCH  16  19
ENDBRANCH  10  15
ENDBRANCH   8  10
ENDBRANCH   5   6
ENDBRANCH   1   5
TORSDOF 23
ENDMDL
MODEL 9
REMARK VINA RESULT:      -3.9      2.499      4.302
REMARK  23 active torsions:
REMARK  status: ('A' for Active; 'I' for Inactive)
REMARK    1  A    between atoms: N_1  and  CA_2 
REMARK    2  A    between atoms: CA_2  and  C_3 
REMARK       I    between atoms: C_3  and  N_8 
REMARK    3  A    between atoms: N_8  and  CA_9 
REMARK    4  A    between atoms: CA_9  and  CB_12 
REMARK    5  A    between atoms: CA_9  and  C_10 
REMARK       I    between atoms: C_10  and  N_17 
REMARK    6  A    between atoms: CB_12  and  CG_13 
REMARK    7  A    between atoms: N_17  and  CA_18 
REMARK    8  A    between atoms: CA_18  and  CB_21 
REMARK    9  A    between atoms: CA_18  and  C_19 
REMARK       I    between atoms: C_19  and  N_26 
REMARK   10  A    between atoms: CB_21  and  CG_22 
REMARK   11  A    between atoms: N_26  and  CA_27 
REMARK   12  A    between atoms: CA_27  and  CB_30 
REMARK   13  A    between atoms: CA_27  and  C_28 
REMARK       I    between atoms: C_28  and  N_39 
REMARK   14  A    between atoms: CB_30  and  CG_31 
REMARK   15  A    between atoms: CG_31  and  CD_32 
REMARK   16  A    between atoms: CD_32  and  CE_33 
REMARK   17  A    between atoms: CE_33  and  NZ_34 
REMARK   18  A    between atoms: N_39  and  CA_40 
REMARK   19  A    between atoms: CA_40  and  C_41 
REMARK   20  A    between atoms: CA_40  and  CB_43 
REMARK   21  A    between atoms: CB_43  and  CG_44 
REMARK   22  A    between atoms: CG_44  and  CD_45 
REMARK   23  A    between atoms: CD_45  and  NE_46 
REMARK       I    between atoms: NE_46  and  CZ_47 
REMARK       I    between atoms: CZ_47  and  NH1_48 
ROOT
ATOM      1  N   GLY     1      63.823  40.660  51.067  1.00  0.00    -0.055 N 
ATOM      2  H1  GLY     1      63.958  40.837  50.090  1.00 99.99     0.276 HD
ATOM      3  H2  GLY     1      64.661  40.804  51.560  1.00 99.99     0.276 HD
ATOM      4  H3  GLY     1      63.607  39.705  51.178  1.00 99.99     0.276 HD
ENDROOT
BRANCH   1   5
ATOM      5  CA  GLY     1      62.726  41.507  51.551  1.00  0.00     0.292 C 
BRANCH   5   6
ATOM      6  C   GLY     1      62.612  42.713  50.604  1.00  0.00     0.261 C 
ATOM      7  O   GLY     1      61.495  43.123  50.293  1.00  0.00    -0.270 OA
ATOM      8  N   LEU     2      63.679  42.878  49.826  1.00  0.00    -0.337 N 
ATOM      9  H   LEU     2      64.506  42.336  49.971  1.00 99.99     0.164 HD
BRANCH   8  10
ATOM     10  CA  LEU     2      63.827  43.944  48.814  1.00  0.00     0.159 C 
BRANCH  10  11
ATOM     11  CB  LEU     2      65.255  44.503  48.911  1.00  0.00     0.032 C 
BRANCH  11  12
ATOM     12  CG  LEU     2      65.286  46.039  48.954  1.00  0.00     0.002 C 
ATOM     13  CD2 LEU     2      66.362  46.555  49.916  1.00  0.00     0.000 C 
ATOM     14  CD1 LEU     2      63.917  46.582  49.366  1.00  0.00     0.000 C 
ENDBRANCH  11  12
ENDBRANCH  10  11
BRANCH  10  15
ATOM     15  C   LEU     2      63.475  43.534  47.366  1.00  0.00     0.251 C 
ATOM     16  N   LEU     3      62.202  43.211  47.113  1.00  0.00    -0.338 N 
ATOM     17  H   LEU     3      61.545  43.095  47.854  1.00 99.99     0.164 HD
ATOM     18  O   LEU     2      64.328  43.658  46.489  1.00  0.00    -0.271 OA
BRANCH  16  19
ATOM     19  CA  LEU     3      61.646  42.871  45.780  1.00  0.00     0.159 C 
BRANCH  19  20
ATOM     20  CB  LEU     3      61.960  41.394  45.478  1.00  0.00     0.032 C 
BRANCH  20  21
ATOM     21  CG  LEU     3      62.610  41.105  44.118  1.00  0.00     0.002 C 
ATOM     22  CD1 LEU     3      61.621  40.328  43.246  1.00  0.00     0.000 C 
ATOM     23  CD2 LEU     3      63.032  42.390  43.398  1.00  0.00     0.000 C 
ENDBRANCH  20  21
ENDBRANCH  19  20
BRANCH  19  24
ATOM     24  C   LEU     3      60.127  43.151  45.603  1.00  0.00     0.251 C 
ATOM     25  O   LEU     3      59.708  43.927  44.747  1.00  0.00    -0.271 OA
ATOM     26  N   LYS     4      59.327  42.438  46.392  1.00  0.00    -0.338 N 
ATOM     27  H   LYS     4      59.749  41.716  46.944  1.00 99.99     0.164 HD
BRANCH  26  28
ATOM     28  CA  LYS     4      57.846  42.491  46.505  1.00  0.00     0.159 C 
BRANCH  28  29
ATOM     29  CB  LYS     4      57.177  41.443  45.602  1.00  0.00     0.032 C 
BRANCH  29  30
ATOM     30  CG  LYS     4      57.930  40.120  45.460  1.00  0.00     0.004 C 
BRANCH  30  31
ATOM     31  CD  LYS     4      57.058  38.984  45.997  1.00  0.00     0.032 C 
BRANCH  31  32
ATOM     32  CE  LYS     4      55.983  38.581  44.987  1.00  0.00     0.206 C 
BRANCH  32  33
ATOM     33  NZ  LYS     4      54.647  38.986  45.452  1.00  0.00    -0.064 N 
ATOM     34  HZ3 LYS     4      54.054  39.124  44.659  1.00 99.99     0.275 HD
ATOM     35  HZ2 LYS     4      54.711  39.838  45.972  1.00 99.99     0.275 HD
ATOM     36  HZ1 LYS     4      54.263  38.266  46.029  1.00 99.99     0.275 HD
ENDBRANCH  32  33
ENDBRANCH  31  32
ENDBRANCH  30  31
ENDBRANCH  29  30
ENDBRANCH  28  29
BRANCH  28  37
ATOM     37  C   LYS     4      57.352  42.200  47.942  1.00  0.00     0.251 C 
ATOM     38  O   LYS     4      58.081  42.360  48.920  1.00  0.00    -0.271 OA
ATOM     39  N   ARG     5      56.101  41.760  48.043  1.00  0.00    -0.336 N 
ATOM     40  H   ARG     5      55.584  41.478  47.235  1.00 99.99     0.164 HD
BRANCH  39  41
ATOM     41  CA  ARG     5      55.368  41.532  49.305  1.00  0.00     0.168 C 
BRANCH  41  42
ATOM     42  C   ARG     5      54.180  40.592  49.067  1.00  0.00     0.206 C 
ATOM     43  OXT ARG     5      53.825  39.937  50.072  1.00 99.99    -0.646 OA
ATOM     44  O   ARG     5      53.666  40.549  47.928  1.00 99.99    -0.646 OA
ENDBRANCH  41  42
BRANCH  41  45
ATOM     45  CB  ARG     5      54.765  42.852  49.787  1.00  0.00     0.035 C 
BRANCH  45  46
ATOM     46  CG  ARG     5      55.420  43.452  51.029  1.00  0.00     0.027 C 
BRANCH  46  47
ATOM     47  CD  ARG     5      55.997  42.324  51.892  1.00  0.00     0.116 C 
BRANCH  47  48
ATOM     48  NE  ARG     5      57.313  42.722  52.439  1.00  0.00    -0.212 N 
ATOM     49  CZ  ARG     5      58.477  42.098  52.247  1.00  0.00     0.666 C 
ATOM     50  NH1 ARG     5      58.553  40.977  51.543  1.00  0.00    -0.235 N 
ATOM     51  NH2 ARG     5      59.599  42.608  52.736  1.00  0.00    -0.235 N 
ATOM     52 2HH1 ARG     5      57.714  40.596  51.162  1.00 99.99     0.174 HD
ATOM     53 1HH1 ARG     5      59.429  40.520  51.405  1.00 99.99     0.174 HD
ATOM     54 1HH2 ARG     5      60.461  42.130  52.582  1.00 99.99     0.174 HD
ATOM     55 2HH2 ARG     5      59.589  43.464  53.249  1.00 99.99     0.174 HD
ATOM     56  HE  ARG     5      57.294  43.499  53.064  1.00 99.99     0.178 HD
ENDBRANCH  47  48
ENDBRANCH  46  47
ENDBRANCH  45  46
ENDBRANCH  41  45
ENDBRANCH  39  41
ENDBRANCH  28  37
ENDBRANCH  26  28
ENDBRANCH  19  24
ENDBRANCH  16  19
ENDBRANCH  10  15
ENDBRANCH   8  10
ENDBRANCH   5   6
ENDBRANCH   1   5
TORSDOF 23
ENDMDL
