MODEL 1
REMARK VINA RESULT:      -5.8      0.000      0.000
REMARK  31 active torsions:
REMARK  status: ('A' for Active; 'I' for Inactive)
REMARK    1  A    between atoms: N_1  and  CA_2 
REMARK    2  A    between atoms: CA_2  and  C_3 
REMARK    3  A    between atoms: CA_2  and  CB_5 
REMARK       I    between atoms: C_3  and  N_20 
REMARK    4  A    between atoms: CB_5  and  CG_6 
REMARK    5  A    between atoms: CG_6  and  CD_7 
REMARK    6  A    between atoms: CD_7  and  NE_8 
REMARK       I    between atoms: NE_8  and  CZ_9 
REMARK       I    between atoms: CZ_9  and  NH1_10 
REMARK       I    between atoms: CZ_9  and  NH2_11 
REMARK    7  A    between atoms: N_20  and  CA_21 
REMARK    8  A    between atoms: CA_21  and  CB_24 
REMARK    9  A    between atoms: CA_21  and  C_22 
REMARK       I    between atoms: C_22  and  N_37 
REMARK   10  A    between atoms: CB_24  and  CG_25 
REMARK   11  A    between atoms: CG_25  and  CD_26 
REMARK   12  A    between atoms: CD_26  and  NE_27 
REMARK       I    between atoms: NE_27  and  CZ_28 
REMARK       I    between atoms: CZ_28  and  NH2_30 
REMARK       I    between atoms: CZ_28  and  NH1_29 
REMARK   13  A    between atoms: N_37  and  CA_38 
REMARK   14  A    between atoms: CA_38  and  CB_41 
REMARK   15  A    between atoms: CA_38  and  C_39 
REMARK       I    between atoms: C_39  and  N_53 
REMARK   16  A    between atoms: CB_41  and  CG_42 
REMARK   17  A    between atoms: N_53  and  CA_54 
REMARK   18  A    between atoms: CA_54  and  C_55 
REMARK   19  A    between atoms: CA_54  and  CB_57 
REMARK       I    between atoms: C_55  and  N_65 
REMARK   20  A    between atoms: CB_57  and  CG_58 
REMARK   21  A    between atoms: CG_58  and  CD_59 
REMARK       I    between atoms: CD_59  and  NE2_61 
REMARK   22  A    between atoms: N_65  and  CA_66 
REMARK   23  A    between atoms: CA_66  and  C_67 
REMARK   24  A    between atoms: CA_66  and  CB_69 
REMARK       I    between atoms: C_67  and  N_81 
REMARK   25  A    between atoms: CB_69  and  CG_70 
REMARK   26  A    between atoms: N_81  and  CA_82 
REMARK   27  A    between atoms: CA_82  and  CB_85 
REMARK   28  A    between atoms: CA_82  and  C_83 
REMARK   29  A    between atoms: CB_85  and  CG_86 
REMARK   30  A    between atoms: CG_86  and  CD_87 
REMARK   31  A    between atoms: CD_87  and  NE_88 
REMARK       I    between atoms: NE_88  and  CZ_89 
REMARK       I    between atoms: CZ_89  and  NH1_90 
ROOT
ATOM      1  N   ARG     1      63.951  43.219  50.012  1.00  0.00    -0.058 N 
ATOM      2  H1  ARG     1      63.715  43.275  50.980  1.00 99.99     0.276 HD
ATOM      3  H2  ARG     1      63.963  42.275  49.717  1.00 99.99     0.276 HD
ATOM      4  H3  ARG     1      64.897  43.523  49.892  1.00 99.99     0.276 HD
ENDROOT
BRANCH   1   5
ATOM      5  CA  ARG     1      63.027  44.064  49.210  1.00  0.00     0.255 C 
BRANCH   5   6
ATOM      6  C   ARG     1      62.792  43.580  47.754  1.00  0.00     0.259 C 
ATOM      7  O   ARG     1      63.633  43.885  46.917  1.00  0.00    -0.271 OA
ATOM      8  N   ARG     2      61.623  43.014  47.406  1.00  0.00    -0.338 N 
ATOM      9  H   ARG     2      60.928  42.775  48.084  1.00 99.99     0.164 HD
BRANCH   8  10
ATOM     10  CA  ARG     2      61.344  42.496  46.039  1.00  0.00     0.159 C 
BRANCH  10  11
ATOM     11  CB  ARG     2      62.295  41.327  45.711  1.00  0.00     0.034 C 
BRANCH  11  12
ATOM     12  CG  ARG     2      63.033  41.410  44.363  1.00  0.00     0.027 C 
BRANCH  12  13
ATOM     13  CD  ARG     2      64.225  40.453  44.243  1.00  0.00     0.116 C 
BRANCH  13  14
ATOM     14  NE  ARG     2      65.456  41.138  44.684  1.00  0.00    -0.212 N 
ATOM     15  HE  ARG     2      65.680  41.031  45.649  1.00 99.99     0.178 HD
ATOM     16  CZ  ARG     2      66.287  41.859  43.922  1.00  0.00     0.666 C 
ATOM     17  NH2 ARG     2      67.328  42.478  44.465  1.00  0.00    -0.235 N 
ATOM     18  NH1 ARG     2      66.088  42.017  42.620  1.00  0.00    -0.235 N 
ATOM     19 1HH2 ARG     2      67.939  43.007  43.879  1.00 99.99     0.174 HD
ATOM     20 2HH2 ARG     2      67.505  42.419  45.444  1.00 99.99     0.174 HD
ATOM     21 2HH1 ARG     2      65.306  41.568  42.191  1.00 99.99     0.174 HD
ATOM     22 1HH1 ARG     2      66.726  42.550  42.069  1.00 99.99     0.174 HD
ENDBRANCH  13  14
ENDBRANCH  12  13
ENDBRANCH  11  12
ENDBRANCH  10  11
BRANCH  10  23
ATOM     23  C   ARG     2      59.870  42.131  45.743  1.00  0.00     0.251 C 
ATOM     24  O   ARG     2      59.439  42.251  44.599  1.00  0.00    -0.271 OA
ATOM     25  N   TRP     3      59.077  41.844  46.778  1.00  0.00    -0.337 N 
ATOM     26  H   TRP     3      59.447  41.646  47.682  1.00 99.99     0.164 HD
BRANCH  25  27
ATOM     27  CA  TRP     3      57.617  41.612  46.659  1.00  0.00     0.164 C 
BRANCH  27  28
ATOM     28  CB  TRP     3      57.344  40.159  47.073  1.00  0.00     0.059 C 
BRANCH  28  29
ATOM     29  CG  TRP     3      56.275  39.469  46.220  1.00  0.00    -0.016 A 
ATOM     30  CD2 TRP     3      55.684  38.245  46.485  1.00  0.00    -0.001 A 
ATOM     31  CE2 TRP     3      54.680  38.076  45.545  1.00  0.00     0.042 A 
ATOM     32  CE3 TRP     3      55.919  37.278  47.449  1.00  0.00     0.014 A 
ATOM     33  CZ2 TRP     3      53.889  36.932  45.584  1.00  0.00     0.030 A 
ATOM     34  NE1 TRP     3      54.698  39.146  44.754  1.00  0.00    -0.365 N 
ATOM     35  CH2 TRP     3      54.108  35.969  46.563  1.00  0.00     0.002 A 
ATOM     36  CZ3 TRP     3      55.132  36.136  47.489  1.00  0.00     0.001 A 
ATOM     37  HE1 TRP     3      54.085  39.308  43.980  1.00 99.99     0.165 HD
ATOM     38  CD1 TRP     3      55.660  39.980  45.157  1.00  0.00     0.097 A 
ENDBRANCH  28  29
ENDBRANCH  27  28
BRANCH  27  39
ATOM     39  C   TRP     3      56.753  42.606  47.475  1.00  0.00     0.251 C 
ATOM     40  O   TRP     3      56.801  43.809  47.239  1.00  0.00    -0.271 OA
ATOM     41  N   GLN     4      56.123  42.110  48.540  1.00  0.00    -0.338 N 
ATOM     42  H   GLN     4      56.250  41.157  48.821  1.00 99.99     0.164 HD
BRANCH  41  43
ATOM     43  CA  GLN     4      55.291  42.885  49.491  1.00  0.00     0.160 C 
BRANCH  43  44
ATOM     44  C   GLN     4      55.948  43.130  50.869  1.00  0.00     0.251 C 
ATOM     45  N   TRP     5      56.943  42.307  51.200  1.00  0.00    -0.337 N 
ATOM     46  H   TRP     5      57.218  41.557  50.599  1.00 99.99     0.164 HD
ATOM     47  O   GLN     4      55.444  43.927  51.661  1.00  0.00    -0.271 OA
BRANCH  45  48
ATOM     48  CA  TRP     5      57.712  42.360  52.463  1.00  0.00     0.164 C 
BRANCH  48  49
ATOM     49  C   TRP     5      59.243  42.353  52.237  1.00  0.00     0.251 C 
ATOM     50  O   TRP     5      59.977  43.139  52.834  1.00  0.00    -0.271 OA
ATOM     51  N   ARG     6      59.708  41.475  51.347  1.00  0.00    -0.336 N 
ATOM     52  H   ARG     6      59.084  40.879  50.841  1.00 99.99     0.164 HD
BRANCH  51  53
ATOM     53  CA  ARG     6      61.144  41.257  51.044  1.00  0.00     0.168 C 
BRANCH  53  54
ATOM     54  CB  ARG     6      61.752  40.291  52.079  1.00  0.00     0.035 C 
BRANCH  54  55
ATOM     55  CG  ARG     6      62.735  40.993  53.029  1.00  0.00     0.027 C 
BRANCH  55  56
ATOM     56  CD  ARG     6      62.431  40.777  54.520  1.00  0.00     0.116 C 
BRANCH  56  57
ATOM     57  NE  ARG     6      60.992  40.755  54.865  1.00  0.00    -0.212 N 
ATOM     58  HE  ARG     6      60.481  41.558  54.564  1.00 99.99     0.178 HD
ATOM     59  CZ  ARG     6      60.283  39.753  55.396  1.00  0.00     0.666 C 
ATOM     60  NH2 ARG     6      59.205  40.041  56.112  1.00  0.00    -0.235 N 
ATOM     61  NH1 ARG     6      60.736  38.508  55.471  1.00  0.00    -0.235 N 
ATOM     62 1HH2 ARG     6      58.677  39.304  56.530  1.00 99.99     0.174 HD
ATOM     63 2HH2 ARG     6      58.927  40.991  56.234  1.00 99.99     0.174 HD
ATOM     64 2HH1 ARG     6      61.614  38.279  55.056  1.00 99.99     0.174 HD
ATOM     65 1HH1 ARG     6      60.172  37.794  55.881  1.00 99.99     0.174 HD
ENDBRANCH  56  57
ENDBRANCH  55  56
ENDBRANCH  54  55
ENDBRANCH  53  54
BRANCH  53  66
ATOM     66  C   ARG     6      61.311  40.666  49.633  1.00  0.00     0.206 C 
ATOM     67  OXT ARG     6      60.255  40.518  48.988  1.00 99.99    -0.646 OA
ATOM     68  O   ARG     6      62.472  40.457  49.217  1.00 99.99    -0.646 OA
ENDBRANCH  53  66
ENDBRANCH  51  53
ENDBRANCH  48  49
BRANCH  48  69
ATOM     69  CB  TRP     5      57.361  41.127  53.307  1.00  0.00     0.059 C 
BRANCH  69  70
ATOM     70  CG  TRP     5      55.926  40.591  53.299  1.00  0.00    -0.016 A 
ATOM     71  CD2 TRP     5      55.541  39.538  52.488  1.00  0.00    -0.001 A 
ATOM     72  CE3 TRP     5      56.177  38.908  51.428  1.00  0.00     0.014 A 
ATOM     73  CE2 TRP     5      54.360  39.036  53.005  1.00  0.00     0.042 A 
ATOM     74  CZ3 TRP     5      55.626  37.760  50.877  1.00  0.00     0.001 A 
ATOM     75  CH2 TRP     5      54.431  37.256  51.381  1.00  0.00     0.002 A 
ATOM     76  CZ2 TRP     5      53.799  37.893  52.445  1.00  0.00     0.030 A 
ATOM     77  NE1 TRP     5      54.053  39.777  54.069  1.00  0.00    -0.365 N 
ATOM     78  HE1 TRP     5      53.279  39.620  54.683  1.00 99.99     0.165 HD
ATOM     79  CD1 TRP     5      54.986  40.718  54.235  1.00  0.00     0.097 A 
ENDBRANCH  69  70
ENDBRANCH  48  69
ENDBRANCH  45  48
ENDBRANCH  43  44
BRANCH  43  80
ATOM     80  CB  GLN     4      53.986  42.118  49.729  1.00  0.00     0.042 C 
BRANCH  80  81
ATOM     81  CG  GLN     4      53.959  40.734  49.082  1.00  0.00     0.090 C 
BRANCH  81  82
ATOM     82  CD  GLN     4      52.677  39.984  49.447  1.00  0.00     0.227 C 
ATOM     83  OE1 GLN     4      51.991  40.266  50.420  1.00  0.00    -0.273 OA
ATOM     84  NE2 GLN     4      52.436  38.901  48.748  1.00  0.00    -0.369 N 
ATOM     85 1HE2 GLN     4      51.604  38.401  48.967  1.00 99.99     0.159 HD
ATOM     86 2HE2 GLN     4      53.060  38.617  48.027  1.00 99.99     0.159 HD
ENDBRANCH  81  82
ENDBRANCH  80  81
ENDBRANCH  43  80
ENDBRANCH  41  43
ENDBRANCH  27  39
ENDBRANCH  25  27
ENDBRANCH  10  23
ENDBRANCH   8  10
ENDBRANCH   5   6
BRANCH   5  87
ATOM     87  CB  ARG     1      63.399  45.558  49.248  1.00  0.00     0.042 C 
BRANCH  87  88
ATOM     88  CG  ARG     1      64.478  45.913  50.288  1.00  0.00     0.027 C 
BRANCH  88  89
ATOM     89  CD  ARG     1      65.852  46.232  49.681  1.00  0.00     0.116 C 
BRANCH  89  90
ATOM     90  NE  ARG     1      66.612  45.020  49.303  1.00  0.00    -0.212 N 
ATOM     91  HE  ARG     1      67.072  44.546  50.051  1.00 99.99     0.178 HD
ATOM     92  CZ  ARG     1      66.794  44.566  48.055  1.00  0.00     0.666 C 
ATOM     93  NH1 ARG     1      66.309  45.205  46.996  1.00  0.00    -0.235 N 
ATOM     94  NH2 ARG     1      67.438  43.426  47.841  1.00  0.00    -0.235 N 
ATOM     95 2HH1 ARG     1      65.802  46.051  47.139  1.00 99.99     0.174 HD
ATOM     96 1HH1 ARG     1      66.445  44.843  46.076  1.00 99.99     0.174 HD
ATOM     97 2HH2 ARG     1      67.787  42.887  48.605  1.00 99.99     0.174 HD
ATOM     98 1HH2 ARG     1      67.551  43.091  46.907  1.00 99.99     0.174 HD
ENDBRANCH  89  90
ENDBRANCH  88  89
ENDBRANCH  87  88
ENDBRANCH   5  87
ENDBRANCH   1   5
TORSDOF 31
ENDMDL
MODEL 2
REMARK VINA RESULT:      -5.7      1.758      2.877
REMARK  31 active torsions:
REMARK  status: ('A' for Active; 'I' for Inactive)
REMARK    1  A    between atoms: N_1  and  CA_2 
REMARK    2  A    between atoms: CA_2  and  C_3 
REMARK    3  A    between atoms: CA_2  and  CB_5 
REMARK       I    between atoms: C_3  and  N_20 
REMARK    4  A    between atoms: CB_5  and  CG_6 
REMARK    5  A    between atoms: CG_6  and  CD_7 
REMARK    6  A    between atoms: CD_7  and  NE_8 
REMARK       I    between atoms: NE_8  and  CZ_9 
REMARK       I    between atoms: CZ_9  and  NH1_10 
REMARK       I    between atoms: CZ_9  and  NH2_11 
REMARK    7  A    between atoms: N_20  and  CA_21 
REMARK    8  A    between atoms: CA_21  and  CB_24 
REMARK    9  A    between atoms: CA_21  and  C_22 
REMARK       I    between atoms: C_22  and  N_37 
REMARK   10  A    between atoms: CB_24  and  CG_25 
REMARK   11  A    between atoms: CG_25  and  CD_26 
REMARK   12  A    between atoms: CD_26  and  NE_27 
REMARK       I    between atoms: NE_27  and  CZ_28 
REMARK       I    between atoms: CZ_28  and  NH2_30 
REMARK       I    between atoms: CZ_28  and  NH1_29 
REMARK   13  A    between atoms: N_37  and  CA_38 
REMARK   14  A    between atoms: CA_38  and  CB_41 
REMARK   15  A    between atoms: CA_38  and  C_39 
REMARK       I    between atoms: C_39  and  N_53 
REMARK   16  A    between atoms: CB_41  and  CG_42 
REMARK   17  A    between atoms: N_53  and  CA_54 
REMARK   18  A    between atoms: CA_54  and  C_55 
REMARK   19  A    between atoms: CA_54  and  CB_57 
REMARK       I    between atoms: C_55  and  N_65 
REMARK   20  A    between atoms: CB_57  and  CG_58 
REMARK   21  A    between atoms: CG_58  and  CD_59 
REMARK       I    between atoms: CD_59  and  NE2_61 
REMARK   22  A    between atoms: N_65  and  CA_66 
REMARK   23  A    between atoms: CA_66  and  C_67 
REMARK   24  A    between atoms: CA_66  and  CB_69 
REMARK       I    between atoms: C_67  and  N_81 
REMARK   25  A    between atoms: CB_69  and  CG_70 
REMARK   26  A    between atoms: N_81  and  CA_82 
REMARK   27  A    between atoms: CA_82  and  CB_85 
REMARK   28  A    between atoms: CA_82  and  C_83 
REMARK   29  A    between atoms: CB_85  and  CG_86 
REMARK   30  A    between atoms: CG_86  and  CD_87 
REMARK   31  A    between atoms: CD_87  and  NE_88 
REMARK       I    between atoms: NE_88  and  CZ_89 
REMARK       I    between atoms: CZ_89  and  NH1_90 
ROOT
ATOM      1  N   ARG     1      63.909  43.402  50.088  1.00  0.00    -0.058 N 
ATOM      2  H1  ARG     1      63.304  42.764  50.560  1.00 99.99     0.276 HD
ATOM      3  H2  ARG     1      64.623  42.909  49.613  1.00 99.99     0.276 HD
ATOM      4  H3  ARG     1      64.401  43.945  50.771  1.00 99.99     0.276 HD
ENDROOT
BRANCH   1   5
ATOM      5  CA  ARG     1      63.120  44.287  49.190  1.00  0.00     0.255 C 
BRANCH   5   6
ATOM      6  C   ARG     1      62.881  43.727  47.762  1.00  0.00     0.259 C 
ATOM      7  O   ARG     1      63.758  43.921  46.927  1.00  0.00    -0.271 OA
ATOM      8  N   ARG     2      61.684  43.219  47.422  1.00  0.00    -0.338 N 
ATOM      9  H   ARG     2      60.961  43.071  48.097  1.00 99.99     0.164 HD
BRANCH   8  10
ATOM     10  CA  ARG     2      61.396  42.634  46.084  1.00  0.00     0.159 C 
BRANCH  10  11
ATOM     11  CB  ARG     2      62.218  41.344  45.883  1.00  0.00     0.034 C 
BRANCH  11  12
ATOM     12  CG  ARG     2      63.114  41.299  44.632  1.00  0.00     0.027 C 
BRANCH  12  13
ATOM     13  CD  ARG     2      64.576  40.940  44.923  1.00  0.00     0.116 C 
BRANCH  13  14
ATOM     14  NE  ARG     2      64.864  41.158  46.354  1.00  0.00    -0.212 N 
ATOM     15  HE  ARG     2      64.728  42.091  46.678  1.00 99.99     0.178 HD
ATOM     16  CZ  ARG     2      65.269  40.239  47.238  1.00  0.00     0.666 C 
ATOM     17  NH2 ARG     2      65.556  40.588  48.486  1.00  0.00    -0.235 N 
ATOM     18  NH1 ARG     2      65.435  38.966  46.902  1.00  0.00    -0.235 N 
ATOM     19 1HH2 ARG     2      65.851  39.887  49.132  1.00 99.99     0.174 HD
ATOM     20 2HH2 ARG     2      65.480  41.537  48.782  1.00 99.99     0.174 HD
ATOM     21 2HH1 ARG     2      65.234  38.681  45.967  1.00 99.99     0.174 HD
ATOM     22 1HH1 ARG     2      65.727  38.295  47.580  1.00 99.99     0.174 HD
ENDBRANCH  13  14
ENDBRANCH  12  13
ENDBRANCH  11  12
ENDBRANCH  10  11
BRANCH  10  23
ATOM     23  C   ARG     2      59.902  42.415  45.749  1.00  0.00     0.251 C 
ATOM     24  O   ARG     2      59.519  42.558  44.591  1.00  0.00    -0.271 OA
ATOM     25  N   TRP     3      59.055  42.230  46.764  1.00  0.00    -0.337 N 
ATOM     26  H   TRP     3      59.376  42.012  47.682  1.00 99.99     0.164 HD
BRANCH  25  27
ATOM     27  CA  TRP     3      57.582  42.146  46.605  1.00  0.00     0.164 C 
BRANCH  27  28
ATOM     28  CB  TRP     3      57.187  40.668  46.740  1.00  0.00     0.059 C 
BRANCH  28  29
ATOM     29  CG  TRP     3      56.560  40.083  45.471  1.00  0.00    -0.016 A 
ATOM     30  CD2 TRP     3      57.234  39.418  44.460  1.00  0.00    -0.001 A 
ATOM     31  CE2 TRP     3      56.270  38.938  43.589  1.00  0.00     0.042 A 
ATOM     32  CE3 TRP     3      58.579  39.183  44.225  1.00  0.00     0.014 A 
ATOM     33  CZ2 TRP     3      56.658  38.196  42.477  1.00  0.00     0.030 A 
ATOM     34  NE1 TRP     3      55.086  39.323  44.060  1.00  0.00    -0.365 N 
ATOM     35  CH2 TRP     3      58.005  37.940  42.249  1.00  0.00     0.002 A 
ATOM     36  CZ3 TRP     3      58.968  38.444  43.117  1.00  0.00     0.001 A 
ATOM     37  HE1 TRP     3      54.200  39.123  43.641  1.00 99.99     0.165 HD
ATOM     38  CD1 TRP     3      55.262  40.016  45.187  1.00  0.00     0.097 A 
ENDBRANCH  28  29
ENDBRANCH  27  28
BRANCH  27  39
ATOM     39  C   TRP     3      56.790  43.039  47.591  1.00  0.00     0.251 C 
ATOM     40  O   TRP     3      56.886  44.261  47.538  1.00  0.00    -0.271 OA
ATOM     41  N   GLN     4      56.171  42.413  48.592  1.00  0.00    -0.338 N 
ATOM     42  H   GLN     4      56.262  41.424  48.723  1.00 99.99     0.164 HD
BRANCH  41  43
ATOM     43  CA  GLN     4      55.404  43.068  49.679  1.00  0.00     0.160 C 
BRANCH  43  44
ATOM     44  C   GLN     4      56.155  43.168  51.027  1.00  0.00     0.251 C 
ATOM     45  N   TRP     5      57.132  42.282  51.222  1.00  0.00    -0.337 N 
ATOM     46  H   TRP     5      57.337  41.576  50.543  1.00 99.99     0.164 HD
ATOM     47  O   GLN     4      55.737  43.911  51.914  1.00  0.00    -0.271 OA
BRANCH  45  48
ATOM     48  CA  TRP     5      57.980  42.196  52.431  1.00  0.00     0.164 C 
BRANCH  48  49
ATOM     49  C   TRP     5      59.470  41.935  52.106  1.00  0.00     0.251 C 
ATOM     50  O   TRP     5      60.340  42.750  52.408  1.00  0.00    -0.271 OA
ATOM     51  N   ARG     6      59.746  40.801  51.460  1.00  0.00    -0.336 N 
ATOM     52  H   ARG     6      59.015  40.176  51.184  1.00 99.99     0.164 HD
BRANCH  51  53
ATOM     53  CA  ARG     6      61.113  40.329  51.126  1.00  0.00     0.168 C 
BRANCH  53  54
ATOM     54  CB  ARG     6      61.206  38.807  51.348  1.00  0.00     0.035 C 
BRANCH  54  55
ATOM     55  CG  ARG     6      59.866  38.096  51.102  1.00  0.00     0.027 C 
BRANCH  55  56
ATOM     56  CD  ARG     6      59.841  37.222  49.839  1.00  0.00     0.116 C 
BRANCH  56  57
ATOM     57  NE  ARG     6      58.680  37.446  48.950  1.00  0.00    -0.212 N 
ATOM     58  HE  ARG     6      57.929  37.954  49.367  1.00 99.99     0.178 HD
ATOM     59  CZ  ARG     6      58.572  37.177  47.644  1.00  0.00     0.666 C 
ATOM     60  NH2 ARG     6      57.371  36.936  47.137  1.00  0.00    -0.235 N 
ATOM     61  NH1 ARG     6      59.615  36.878  46.879  1.00  0.00    -0.235 N 
ATOM     62 1HH2 ARG     6      57.278  36.715  46.168  1.00 99.99     0.174 HD
ATOM     63 2HH2 ARG     6      56.566  36.972  47.724  1.00 99.99     0.174 HD
ATOM     64 2HH1 ARG     6      60.534  36.920  47.265  1.00 99.99     0.174 HD
ATOM     65 1HH1 ARG     6      59.485  36.680  45.910  1.00 99.99     0.174 HD
ENDBRANCH  56  57
ENDBRANCH  55  56
ENDBRANCH  54  55
ENDBRANCH  53  54
BRANCH  53  66
ATOM     66  C   ARG     6      61.449  40.654  49.660  1.00  0.00     0.206 C 
ATOM     67  OXT ARG     6      60.466  40.819  48.910  1.00 99.99    -0.646 OA
ATOM     68  O   ARG     6      62.652  40.803  49.352  1.00 99.99    -0.646 OA
ENDBRANCH  53  66
ENDBRANCH  51  53
ENDBRANCH  48  49
BRANCH  48  69
ATOM     69  CB  TRP     5      57.483  41.034  53.302  1.00  0.00     0.059 C 
BRANCH  69  70
ATOM     70  CG  TRP     5      56.011  40.617  53.233  1.00  0.00    -0.016 A 
ATOM     71  CD2 TRP     5      55.573  39.610  52.391  1.00  0.00    -0.001 A 
ATOM     72  CE3 TRP     5      56.194  38.947  51.343  1.00  0.00     0.014 A 
ATOM     73  CE2 TRP     5      54.336  39.199  52.857  1.00  0.00     0.042 A 
ATOM     74  CZ3 TRP     5      55.572  37.855  50.753  1.00  0.00     0.001 A 
ATOM     75  CH2 TRP     5      54.324  37.443  51.205  1.00  0.00     0.002 A 
ATOM     76  CZ2 TRP     5      53.706  38.113  52.257  1.00  0.00     0.030 A 
ATOM     77  NE1 TRP     5      54.052  39.946  53.922  1.00  0.00    -0.365 N 
ATOM     78  HE1 TRP     5      53.245  39.843  54.505  1.00 99.99     0.165 HD
ATOM     79  CD1 TRP     5      55.050  40.805  54.137  1.00  0.00     0.097 A 
ENDBRANCH  69  70
ENDBRANCH  48  69
ENDBRANCH  45  48
ENDBRANCH  43  44
BRANCH  43  80
ATOM     80  CB  GLN     4      54.123  42.263  49.921  1.00  0.00     0.042 C 
BRANCH  80  81
ATOM     81  CG  GLN     4      53.963  41.065  48.986  1.00  0.00     0.090 C 
BRANCH  81  82
ATOM     82  CD  GLN     4      52.705  40.266  49.331  1.00  0.00     0.227 C 
ATOM     83  OE1 GLN     4      52.472  39.155  48.874  1.00  0.00    -0.273 OA
ATOM     84  NE2 GLN     4      51.797  40.912  50.022  1.00  0.00    -0.369 N 
ATOM     85 1HE2 GLN     4      50.972  40.408  50.261  1.00 99.99     0.159 HD
ATOM     86 2HE2 GLN     4      51.949  41.856  50.298  1.00 99.99     0.159 HD
ENDBRANCH  81  82
ENDBRANCH  80  81
ENDBRANCH  43  80
ENDBRANCH  41  43
ENDBRANCH  27  39
ENDBRANCH  25  27
ENDBRANCH  10  23
ENDBRANCH   8  10
ENDBRANCH   5   6
BRANCH   5  87
ATOM     87  CB  ARG     1      63.665  45.726  49.141  1.00  0.00     0.042 C 
BRANCH  87  88
ATOM     88  CG  ARG     1      64.856  45.982  50.084  1.00  0.00     0.027 C 
BRANCH  88  89
ATOM     89  CD  ARG     1      66.198  46.169  49.362  1.00  0.00     0.116 C 
BRANCH  89  90
ATOM     90  NE  ARG     1      66.173  45.687  47.963  1.00  0.00    -0.212 N 
ATOM     91  HE  ARG     1      65.697  46.273  47.311  1.00 99.99     0.178 HD
ATOM     92  CZ  ARG     1      66.659  44.516  47.529  1.00  0.00     0.666 C 
ATOM     93  NH1 ARG     1      67.206  43.631  48.356  1.00  0.00    -0.235 N 
ATOM     94  NH2 ARG     1      66.643  44.218  46.236  1.00  0.00    -0.235 N 
ATOM     95 2HH1 ARG     1      67.248  43.847  49.328  1.00 99.99     0.174 HD
ATOM     96 1HH1 ARG     1      67.573  42.770  48.010  1.00 99.99     0.174 HD
ATOM     97 2HH2 ARG     1      66.279  44.866  45.569  1.00 99.99     0.174 HD
ATOM     98 1HH2 ARG     1      67.024  43.349  45.926  1.00 99.99     0.174 HD
ENDBRANCH  89  90
ENDBRANCH  88  89
ENDBRANCH  87  88
ENDBRANCH   5  87
ENDBRANCH   1   5
TORSDOF 31
ENDMDL
MODEL 3
REMARK VINA RESULT:      -5.6      2.432      3.795
REMARK  31 active torsions:
REMARK  status: ('A' for Active; 'I' for Inactive)
REMARK    1  A    between atoms: N_1  and  CA_2 
REMARK    2  A    between atoms: CA_2  and  C_3 
REMARK    3  A    between atoms: CA_2  and  CB_5 
REMARK       I    between atoms: C_3  and  N_20 
REMARK    4  A    between atoms: CB_5  and  CG_6 
REMARK    5  A    between atoms: CG_6  and  CD_7 
REMARK    6  A    between atoms: CD_7  and  NE_8 
REMARK       I    between atoms: NE_8  and  CZ_9 
REMARK       I    between atoms: CZ_9  and  NH1_10 
REMARK       I    between atoms: CZ_9  and  NH2_11 
REMARK    7  A    between atoms: N_20  and  CA_21 
REMARK    8  A    between atoms: CA_21  and  CB_24 
REMARK    9  A    between atoms: CA_21  and  C_22 
REMARK       I    between atoms: C_22  and  N_37 
REMARK   10  A    between atoms: CB_24  and  CG_25 
REMARK   11  A    between atoms: CG_25  and  CD_26 
REMARK   12  A    between atoms: CD_26  and  NE_27 
REMARK       I    between atoms: NE_27  and  CZ_28 
REMARK       I    between atoms: CZ_28  and  NH2_30 
REMARK       I    between atoms: CZ_28  and  NH1_29 
REMARK   13  A    between atoms: N_37  and  CA_38 
REMARK   14  A    between atoms: CA_38  and  CB_41 
REMARK   15  A    between atoms: CA_38  and  C_39 
REMARK       I    between atoms: C_39  and  N_53 
REMARK   16  A    between atoms: CB_41  and  CG_42 
REMARK   17  A    between atoms: N_53  and  CA_54 
REMARK   18  A    between atoms: CA_54  and  C_55 
REMARK   19  A    between atoms: CA_54  and  CB_57 
REMARK       I    between atoms: C_55  and  N_65 
REMARK   20  A    between atoms: CB_57  and  CG_58 
REMARK   21  A    between atoms: CG_58  and  CD_59 
REMARK       I    between atoms: CD_59  and  NE2_61 
REMARK   22  A    between atoms: N_65  and  CA_66 
REMARK   23  A    between atoms: CA_66  and  C_67 
REMARK   24  A    between atoms: CA_66  and  CB_69 
REMARK       I    between atoms: C_67  and  N_81 
REMARK   25  A    between atoms: CB_69  and  CG_70 
REMARK   26  A    between atoms: N_81  and  CA_82 
REMARK   27  A    between atoms: CA_82  and  CB_85 
REMARK   28  A    between atoms: CA_82  and  C_83 
REMARK   29  A    between atoms: CB_85  and  CG_86 
REMARK   30  A    between atoms: CG_86  and  CD_87 
REMARK   31  A    between atoms: CD_87  and  NE_88 
REMARK       I    between atoms: NE_88  and  CZ_89 
REMARK       I    between atoms: CZ_89  and  NH1_90 
ROOT
ATOM      1  N   ARG     1      64.661  42.512  44.071  1.00  0.00    -0.058 N 
ATOM      2  H1  ARG     1      63.992  42.610  43.337  1.00 99.99     0.276 HD
ATOM      3  H2  ARG     1      65.417  43.134  43.931  1.00 99.99     0.276 HD
ATOM      4  H3  ARG     1      65.079  41.603  44.007  1.00 99.99     0.276 HD
ENDROOT
BRANCH   1   5
ATOM      5  CA  ARG     1      64.002  42.690  45.392  1.00  0.00     0.255 C 
BRANCH   5   6
ATOM      6  C   ARG     1      62.485  43.011  45.332  1.00  0.00     0.259 C 
ATOM      7  O   ARG     1      61.917  43.246  46.392  1.00  0.00    -0.271 OA
ATOM      8  N   ARG     2      61.802  42.852  44.185  1.00  0.00    -0.338 N 
ATOM      9  H   ARG     2      62.259  42.647  43.320  1.00 99.99     0.164 HD
BRANCH   8  10
ATOM     10  CA  ARG     2      60.355  43.175  44.047  1.00  0.00     0.159 C 
BRANCH  10  11
ATOM     11  CB  ARG     2      59.979  43.292  42.556  1.00  0.00     0.034 C 
BRANCH  11  12
ATOM     12  CG  ARG     2      60.871  42.517  41.568  1.00  0.00     0.027 C 
BRANCH  12  13
ATOM     13  CD  ARG     2      60.103  41.863  40.413  1.00  0.00     0.116 C 
BRANCH  13  14
ATOM     14  NE  ARG     2      61.032  41.066  39.589  1.00  0.00    -0.212 N 
ATOM     15  HE  ARG     2      61.204  40.140  39.917  1.00 99.99     0.178 HD
ATOM     16  CZ  ARG     2      61.639  41.457  38.463  1.00  0.00     0.666 C 
ATOM     17  NH2 ARG     2      62.506  40.656  37.855  1.00  0.00    -0.235 N 
ATOM     18  NH1 ARG     2      61.434  42.655  37.933  1.00  0.00    -0.235 N 
ATOM     19 1HH2 ARG     2      62.945  40.963  37.013  1.00 99.99     0.174 HD
ATOM     20 2HH2 ARG     2      62.721  39.757  38.229  1.00 99.99     0.174 HD
ATOM     21 2HH1 ARG     2      60.793  43.279  38.378  1.00 99.99     0.174 HD
ATOM     22 1HH1 ARG     2      61.889  42.922  37.086  1.00 99.99     0.174 HD
ENDBRANCH  13  14
ENDBRANCH  12  13
ENDBRANCH  11  12
ENDBRANCH  10  11
BRANCH  10  23
ATOM     23  C   ARG     2      59.380  42.247  44.809  1.00  0.00     0.251 C 
ATOM     24  O   ARG     2      58.861  41.304  44.217  1.00  0.00    -0.271 OA
ATOM     25  N   TRP     3      59.020  42.600  46.046  1.00  0.00    -0.337 N 
ATOM     26  H   TRP     3      59.515  43.297  46.557  1.00 99.99     0.164 HD
BRANCH  25  27
ATOM     27  CA  TRP     3      57.992  41.885  46.840  1.00  0.00     0.164 C 
BRANCH  27  28
ATOM     28  CB  TRP     3      58.725  40.919  47.782  1.00  0.00     0.059 C 
BRANCH  28  29
ATOM     29  CG  TRP     3      58.732  39.469  47.289  1.00  0.00    -0.016 A 
ATOM     30  CD2 TRP     3      57.640  38.617  47.244  1.00  0.00    -0.001 A 
ATOM     31  CE2 TRP     3      58.061  37.465  46.600  1.00  0.00     0.042 A 
ATOM     32  CE3 TRP     3      56.335  38.739  47.692  1.00  0.00     0.014 A 
ATOM     33  CZ2 TRP     3      57.157  36.429  46.386  1.00  0.00     0.030 A 
ATOM     34  NE1 TRP     3      59.347  37.630  46.300  1.00  0.00    -0.365 N 
ATOM     35  CH2 TRP     3      55.841  36.556  46.815  1.00  0.00     0.002 A 
ATOM     36  CZ3 TRP     3      55.432  37.708  47.480  1.00  0.00     0.001 A 
ATOM     37  HE1 TRP     3      59.925  36.962  45.829  1.00 99.99     0.165 HD
ATOM     38  CD1 TRP     3      59.750  38.831  46.719  1.00  0.00     0.097 A 
ENDBRANCH  28  29
ENDBRANCH  27  28
BRANCH  27  39
ATOM     39  C   TRP     3      57.035  42.821  47.619  1.00  0.00     0.251 C 
ATOM     40  O   TRP     3      56.798  43.951  47.206  1.00  0.00    -0.271 OA
ATOM     41  N   GLN     4      56.650  42.406  48.826  1.00  0.00    -0.338 N 
ATOM     42  H   GLN     4      57.008  41.558  49.223  1.00 99.99     0.164 HD
BRANCH  41  43
ATOM     43  CA  GLN     4      55.785  43.159  49.765  1.00  0.00     0.160 C 
BRANCH  43  44
ATOM     44  C   GLN     4      56.286  43.176  51.228  1.00  0.00     0.251 C 
ATOM     45  N   TRP     5      57.323  42.386  51.504  1.00  0.00    -0.337 N 
ATOM     46  H   TRP     5      57.726  41.795  50.804  1.00 99.99     0.164 HD
ATOM     47  O   GLN     4      55.636  43.756  52.098  1.00  0.00    -0.271 OA
BRANCH  45  48
ATOM     48  CA  TRP     5      57.965  42.247  52.829  1.00  0.00     0.164 C 
BRANCH  48  49
ATOM     49  C   TRP     5      59.500  42.070  52.741  1.00  0.00     0.251 C 
ATOM     50  O   TRP     5      60.146  41.632  53.692  1.00  0.00    -0.271 OA
ATOM     51  N   ARG     6      60.075  42.442  51.597  1.00  0.00    -0.336 N 
ATOM     52  H   ARG     6      59.533  42.838  50.855  1.00 99.99     0.164 HD
BRANCH  51  53
ATOM     53  CA  ARG     6      61.517  42.282  51.284  1.00  0.00     0.168 C 
BRANCH  53  54
ATOM     54  CB  ARG     6      61.682  41.782  49.835  1.00  0.00     0.035 C 
BRANCH  54  55
ATOM     55  CG  ARG     6      61.776  40.250  49.751  1.00  0.00     0.027 C 
BRANCH  55  56
ATOM     56  CD  ARG     6      63.203  39.700  49.897  1.00  0.00     0.116 C 
BRANCH  56  57
ATOM     57  NE  ARG     6      64.070  39.895  48.715  1.00  0.00    -0.212 N 
ATOM     58  HE  ARG     6      63.805  39.362  47.913  1.00 99.99     0.178 HD
ATOM     59  CZ  ARG     6      65.058  40.781  48.549  1.00  0.00     0.666 C 
ATOM     60  NH2 ARG     6      66.042  40.493  47.708  1.00  0.00    -0.235 N 
ATOM     61  NH1 ARG     6      65.252  41.808  49.367  1.00  0.00    -0.235 N 
ATOM     62 1HH2 ARG     6      66.796  41.137  47.589  1.00 99.99     0.174 HD
ATOM     63 2HH2 ARG     6      66.028  39.635  47.200  1.00 99.99     0.174 HD
ATOM     64 2HH1 ARG     6      64.599  41.981  50.101  1.00 99.99     0.174 HD
ATOM     65 1HH1 ARG     6      66.007  42.441  49.205  1.00 99.99     0.174 HD
ENDBRANCH  56  57
ENDBRANCH  55  56
ENDBRANCH  54  55
ENDBRANCH  53  54
BRANCH  53  66
ATOM     66  C   ARG     6      62.254  43.623  51.449  1.00  0.00     0.206 C 
ATOM     67  OXT ARG     6      63.118  43.868  50.584  1.00 99.99    -0.646 OA
ATOM     68  O   ARG     6      61.888  44.385  52.371  1.00 99.99    -0.646 OA
ENDBRANCH  53  66
ENDBRANCH  51  53
ENDBRANCH  48  49
BRANCH  48  69
ATOM     69  CB  TRP     5      57.393  41.006  53.527  1.00  0.00     0.059 C 
BRANCH  69  70
ATOM     70  CG  TRP     5      56.524  40.027  52.732  1.00  0.00    -0.016 A 
ATOM     71  CD2 TRP     5      57.074  39.074  51.893  1.00  0.00    -0.001 A 
ATOM     72  CE3 TRP     5      58.363  38.904  51.408  1.00  0.00     0.014 A 
ATOM     73  CE2 TRP     5      56.101  38.115  51.672  1.00  0.00     0.042 A 
ATOM     74  CZ3 TRP     5      58.684  37.758  50.693  1.00  0.00     0.001 A 
ATOM     75  CH2 TRP     5      57.709  36.796  50.454  1.00  0.00     0.002 A 
ATOM     76  CZ2 TRP     5      56.419  36.973  50.944  1.00  0.00     0.030 A 
ATOM     77  NE1 TRP     5      55.016  38.498  52.342  1.00  0.00    -0.365 N 
ATOM     78  HE1 TRP     5      54.165  37.978  52.416  1.00 99.99     0.165 HD
ATOM     79  CD1 TRP     5      55.266  39.652  52.965  1.00  0.00     0.097 A 
ENDBRANCH  69  70
ENDBRANCH  48  69
ENDBRANCH  45  48
ENDBRANCH  43  44
BRANCH  43  80
ATOM     80  CB  GLN     4      54.393  42.522  49.760  1.00  0.00     0.042 C 
BRANCH  80  81
ATOM     81  CG  GLN     4      54.413  40.997  49.653  1.00  0.00     0.090 C 
BRANCH  81  82
ATOM     82  CD  GLN     4      52.999  40.441  49.487  1.00  0.00     0.227 C 
ATOM     83  OE1 GLN     4      52.741  39.463  48.800  1.00  0.00    -0.273 OA
ATOM     84  NE2 GLN     4      52.038  41.177  49.995  1.00  0.00    -0.369 N 
ATOM     85 1HE2 GLN     4      51.110  40.829  49.901  1.00 99.99     0.159 HD
ATOM     86 2HE2 GLN     4      52.249  42.030  50.460  1.00 99.99     0.159 HD
ENDBRANCH  81  82
ENDBRANCH  80  81
ENDBRANCH  43  80
ENDBRANCH  41  43
ENDBRANCH  27  39
ENDBRANCH  25  27
ENDBRANCH  10  23
ENDBRANCH   8  10
ENDBRANCH   5   6
BRANCH   5  87
ATOM     87  CB  ARG     1      64.747  43.685  46.301  1.00  0.00     0.042 C 
BRANCH  87  88
ATOM     88  CG  ARG     1      66.261  43.776  46.031  1.00  0.00     0.027 C 
BRANCH  88  89
ATOM     89  CD  ARG     1      67.058  44.459  47.151  1.00  0.00     0.116 C 
BRANCH  89  90
ATOM     90  NE  ARG     1      66.443  45.724  47.608  1.00  0.00    -0.212 N 
ATOM     91  HE  ARG     1      66.476  46.482  46.959  1.00 99.99     0.178 HD
ATOM     92  CZ  ARG     1      65.931  45.953  48.825  1.00  0.00     0.666 C 
ATOM     93  NH1 ARG     1      65.954  45.031  49.782  1.00  0.00    -0.235 N 
ATOM     94  NH2 ARG     1      65.341  47.109  49.101  1.00  0.00    -0.235 N 
ATOM     95 2HH1 ARG     1      66.371  44.148  49.585  1.00 99.99     0.174 HD
ATOM     96 1HH1 ARG     1      65.555  45.217  50.678  1.00 99.99     0.174 HD
ATOM     97 2HH2 ARG     1      65.262  47.820  48.405  1.00 99.99     0.174 HD
ATOM     98 1HH2 ARG     1      64.949  47.258  50.007  1.00 99.99     0.174 HD
ENDBRANCH  89  90
ENDBRANCH  88  89
ENDBRANCH  87  88
ENDBRANCH   5  87
ENDBRANCH   1   5
TORSDOF 31
ENDMDL
MODEL 4
REMARK VINA RESULT:      -5.5      2.369      3.764
REMARK  31 active torsions:
REMARK  status: ('A' for Active; 'I' for Inactive)
REMARK    1  A    between atoms: N_1  and  CA_2 
REMARK    2  A    between atoms: CA_2  and  C_3 
REMARK    3  A    between atoms: CA_2  and  CB_5 
REMARK       I    between atoms: C_3  and  N_20 
REMARK    4  A    between atoms: CB_5  and  CG_6 
REMARK    5  A    between atoms: CG_6  and  CD_7 
REMARK    6  A    between atoms: CD_7  and  NE_8 
REMARK       I    between atoms: NE_8  and  CZ_9 
REMARK       I    between atoms: CZ_9  and  NH1_10 
REMARK       I    between atoms: CZ_9  and  NH2_11 
REMARK    7  A    between atoms: N_20  and  CA_21 
REMARK    8  A    between atoms: CA_21  and  CB_24 
REMARK    9  A    between atoms: CA_21  and  C_22 
REMARK       I    between atoms: C_22  and  N_37 
REMARK   10  A    between atoms: CB_24  and  CG_25 
REMARK   11  A    between atoms: CG_25  and  CD_26 
REMARK   12  A    between atoms: CD_26  and  NE_27 
REMARK       I    between atoms: NE_27  and  CZ_28 
REMARK       I    between atoms: CZ_28  and  NH2_30 
REMARK       I    between atoms: CZ_28  and  NH1_29 
REMARK   13  A    between atoms: N_37  and  CA_38 
REMARK   14  A    between atoms: CA_38  and  CB_41 
REMARK   15  A    between atoms: CA_38  and  C_39 
REMARK       I    between atoms: C_39  and  N_53 
REMARK   16  A    between atoms: CB_41  and  CG_42 
REMARK   17  A    between atoms: N_53  and  CA_54 
REMARK   18  A    between atoms: CA_54  and  C_55 
REMARK   19  A    between atoms: CA_54  and  CB_57 
REMARK       I    between atoms: C_55  and  N_65 
REMARK   20  A    between atoms: CB_57  and  CG_58 
REMARK   21  A    between atoms: CG_58  and  CD_59 
REMARK       I    between atoms: CD_59  and  NE2_61 
REMARK   22  A    between atoms: N_65  and  CA_66 
REMARK   23  A    between atoms: CA_66  and  C_67 
REMARK   24  A    between atoms: CA_66  and  CB_69 
REMARK       I    between atoms: C_67  and  N_81 
REMARK   25  A    between atoms: CB_69  and  CG_70 
REMARK   26  A    between atoms: N_81  and  CA_82 
REMARK   27  A    between atoms: CA_82  and  CB_85 
REMARK   28  A    between atoms: CA_82  and  C_83 
REMARK   29  A    between atoms: CB_85  and  CG_86 
REMARK   30  A    between atoms: CG_86  and  CD_87 
REMARK   31  A    between atoms: CD_87  and  NE_88 
REMARK       I    between atoms: NE_88  and  CZ_89 
REMARK       I    between atoms: CZ_89  and  NH1_90 
ROOT
ATOM      1  N   ARG     1      64.282  41.453  45.134  1.00  0.00    -0.058 N 
ATOM      2  H1  ARG     1      63.675  41.376  44.346  1.00 99.99     0.276 HD
ATOM      3  H2  ARG     1      65.202  41.667  44.839  1.00 99.99     0.276 HD
ATOM      4  H3  ARG     1      64.368  40.552  45.564  1.00 99.99     0.276 HD
ENDROOT
BRANCH   1   5
ATOM      5  CA  ARG     1      63.741  42.442  46.103  1.00  0.00     0.255 C 
BRANCH   5   6
ATOM      6  C   ARG     1      62.301  42.937  45.801  1.00  0.00     0.259 C 
ATOM      7  O   ARG     1      61.660  43.407  46.735  1.00  0.00    -0.271 OA
ATOM      8  N   ARG     2      61.731  42.685  44.610  1.00  0.00    -0.338 N 
ATOM      9  H   ARG     2      62.246  42.290  43.850  1.00 99.99     0.164 HD
BRANCH   8  10
ATOM     10  CA  ARG     2      60.370  43.161  44.241  1.00  0.00     0.159 C 
BRANCH  10  11
ATOM     11  CB  ARG     2      60.265  43.330  42.712  1.00  0.00     0.034 C 
BRANCH  11  12
ATOM     12  CG  ARG     2      61.049  42.314  41.862  1.00  0.00     0.027 C 
BRANCH  12  13
ATOM     13  CD  ARG     2      60.233  41.693  40.721  1.00  0.00     0.116 C 
BRANCH  13  14
ATOM     14  NE  ARG     2      59.534  40.489  41.211  1.00  0.00    -0.212 N 
ATOM     15  HE  ARG     2      60.126  39.747  41.514  1.00 99.99     0.178 HD
ATOM     16  CZ  ARG     2      58.210  40.312  41.295  1.00  0.00     0.666 C 
ATOM     17  NH2 ARG     2      57.713  39.147  41.695  1.00  0.00    -0.235 N 
ATOM     18  NH1 ARG     2      57.350  41.262  40.954  1.00  0.00    -0.235 N 
ATOM     19 1HH2 ARG     2      56.723  39.036  41.757  1.00 99.99     0.174 HD
ATOM     20 2HH2 ARG     2      58.315  38.389  41.933  1.00 99.99     0.174 HD
ATOM     21 2HH1 ARG     2      57.700  42.143  40.642  1.00 99.99     0.174 HD
ATOM     22 1HH1 ARG     2      56.367  41.112  41.035  1.00 99.99     0.174 HD
ENDBRANCH  13  14
ENDBRANCH  12  13
ENDBRANCH  11  12
ENDBRANCH  10  11
BRANCH  10  23
ATOM     23  C   ARG     2      59.190  42.335  44.805  1.00  0.00     0.251 C 
ATOM     24  O   ARG     2      58.378  41.838  44.029  1.00  0.00    -0.271 OA
ATOM     25  N   TRP     3      59.012  42.322  46.129  1.00  0.00    -0.337 N 
ATOM     26  H   TRP     3      59.722  42.633  46.756  1.00 99.99     0.164 HD
BRANCH  25  27
ATOM     27  CA  TRP     3      57.849  41.690  46.799  1.00  0.00     0.164 C 
BRANCH  27  28
ATOM     28  CB  TRP     3      58.389  40.582  47.714  1.00  0.00     0.059 C 
BRANCH  28  29
ATOM     29  CG  TRP     3      58.617  39.249  46.993  1.00  0.00    -0.016 A 
ATOM     30  CD2 TRP     3      59.825  38.783  46.501  1.00  0.00    -0.001 A 
ATOM     31  CE2 TRP     3      59.603  37.488  46.062  1.00  0.00     0.042 A 
ATOM     32  CE3 TRP     3      61.082  39.357  46.403  1.00  0.00     0.014 A 
ATOM     33  CZ2 TRP     3      60.659  36.752  45.535  1.00  0.00     0.030 A 
ATOM     34  NE1 TRP     3      58.317  37.218  46.271  1.00  0.00    -0.365 N 
ATOM     35  CH2 TRP     3      61.928  37.317  45.454  1.00  0.00     0.002 A 
ATOM     36  CZ3 TRP     3      62.137  38.625  45.877  1.00  0.00     0.001 A 
ATOM     37  HE1 TRP     3      57.862  36.354  46.053  1.00 99.99     0.165 HD
ATOM     38  CD1 TRP     3      57.724  38.278  46.824  1.00  0.00     0.097 A 
ENDBRANCH  28  29
ENDBRANCH  27  28
BRANCH  27  39
ATOM     39  C   TRP     3      56.955  42.685  47.579  1.00  0.00     0.251 C 
ATOM     40  O   TRP     3      56.818  43.839  47.184  1.00  0.00    -0.271 OA
ATOM     41  N   GLN     4      56.514  42.280  48.770  1.00  0.00    -0.338 N 
ATOM     42  H   GLN     4      56.795  41.398  49.155  1.00 99.99     0.164 HD
BRANCH  41  43
ATOM     43  CA  GLN     4      55.694  43.083  49.708  1.00  0.00     0.160 C 
BRANCH  43  44
ATOM     44  C   GLN     4      56.259  43.169  51.145  1.00  0.00     0.251 C 
ATOM     45  N   TRP     5      57.348  42.441  51.392  1.00  0.00    -0.337 N 
ATOM     46  H   TRP     5      57.749  41.851  50.691  1.00 99.99     0.164 HD
ATOM     47  O   GLN     4      55.620  43.740  52.028  1.00  0.00    -0.271 OA
BRANCH  45  48
ATOM     48  CA  TRP     5      58.056  42.375  52.690  1.00  0.00     0.164 C 
BRANCH  48  49
ATOM     49  C   TRP     5      59.591  42.258  52.534  1.00  0.00     0.251 C 
ATOM     50  O   TRP     5      60.319  42.090  53.511  1.00  0.00    -0.271 OA
ATOM     51  N   ARG     6      60.073  42.379  51.296  1.00  0.00    -0.336 N 
ATOM     52  H   ARG     6      59.463  42.561  50.524  1.00 99.99     0.164 HD
BRANCH  51  53
ATOM     53  CA  ARG     6      61.502  42.221  50.925  1.00  0.00     0.168 C 
BRANCH  53  54
ATOM     54  CB  ARG     6      61.615  41.374  49.643  1.00  0.00     0.035 C 
BRANCH  54  55
ATOM     55  CG  ARG     6      62.165  39.966  49.918  1.00  0.00     0.027 C 
BRANCH  55  56
ATOM     56  CD  ARG     6      62.807  39.802  51.304  1.00  0.00     0.116 C 
BRANCH  56  57
ATOM     57  NE  ARG     6      62.526  38.512  51.972  1.00  0.00    -0.212 N 
ATOM     58  HE  ARG     6      63.123  37.762  51.695  1.00 99.99     0.178 HD
ATOM     59  CZ  ARG     6      61.679  38.268  52.978  1.00  0.00     0.666 C 
ATOM     60  NH2 ARG     6      61.160  37.053  53.097  1.00  0.00    -0.235 N 
ATOM     61  NH1 ARG     6      61.124  39.230  53.705  1.00  0.00    -0.235 N 
ATOM     62 1HH2 ARG     6      60.512  36.862  53.833  1.00 99.99     0.174 HD
ATOM     63 2HH2 ARG     6      61.415  36.337  52.452  1.00 99.99     0.174 HD
ATOM     64 2HH1 ARG     6      61.393  40.178  53.553  1.00 99.99     0.174 HD
ATOM     65 1HH1 ARG     6      60.494  38.998  54.444  1.00 99.99     0.174 HD
ENDBRANCH  56  57
ENDBRANCH  55  56
ENDBRANCH  54  55
ENDBRANCH  53  54
BRANCH  53  66
ATOM     66  C   ARG     6      62.149  43.597  50.689  1.00  0.00     0.206 C 
ATOM     67  OXT ARG     6      61.991  44.427  51.606  1.00 99.99    -0.646 OA
ATOM     68  O   ARG     6      62.836  43.754  49.655  1.00 99.99    -0.646 OA
ENDBRANCH  53  66
ENDBRANCH  51  53
ENDBRANCH  48  49
BRANCH  48  69
ATOM     69  CB  TRP     5      57.571  41.135  53.454  1.00  0.00     0.059 C 
BRANCH  69  70
ATOM     70  CG  TRP     5      56.694  40.103  52.739  1.00  0.00    -0.016 A 
ATOM     71  CD2 TRP     5      57.220  39.187  51.846  1.00  0.00    -0.001 A 
ATOM     72  CE3 TRP     5      58.465  39.099  51.239  1.00  0.00     0.014 A 
ATOM     73  CE2 TRP     5      56.293  38.169  51.711  1.00  0.00     0.042 A 
ATOM     74  CZ3 TRP     5      58.788  37.977  50.489  1.00  0.00     0.001 A 
ATOM     75  CH2 TRP     5      57.857  36.955  50.338  1.00  0.00     0.002 A 
ATOM     76  CZ2 TRP     5      56.611  37.050  50.949  1.00  0.00     0.030 A 
ATOM     77  NE1 TRP     5      55.254  38.483  52.484  1.00  0.00    -0.365 N 
ATOM     78  HE1 TRP     5      54.448  37.910  52.635  1.00 99.99     0.165 HD
ATOM     79  CD1 TRP     5      55.490  39.650  53.087  1.00  0.00     0.097 A 
ENDBRANCH  69  70
ENDBRANCH  48  69
ENDBRANCH  45  48
ENDBRANCH  43  44
BRANCH  43  80
ATOM     80  CB  GLN     4      54.301  42.453  49.795  1.00  0.00     0.042 C 
BRANCH  80  81
ATOM     81  CG  GLN     4      54.308  40.927  49.700  1.00  0.00     0.090 C 
BRANCH  81  82
ATOM     82  CD  GLN     4      52.967  40.345  50.151  1.00  0.00     0.227 C 
ATOM     83  OE1 GLN     4      52.863  39.266  50.718  1.00  0.00    -0.273 OA
ATOM     84  NE2 GLN     4      51.903  40.995  49.744  1.00  0.00    -0.369 N 
ATOM     85 1HE2 GLN     4      51.020  40.635  50.031  1.00 99.99     0.159 HD
ATOM     86 2HE2 GLN     4      51.995  41.816  49.189  1.00 99.99     0.159 HD
ENDBRANCH  81  82
ENDBRANCH  80  81
ENDBRANCH  43  80
ENDBRANCH  41  43
ENDBRANCH  27  39
ENDBRANCH  25  27
ENDBRANCH  10  23
ENDBRANCH   8  10
ENDBRANCH   5   6
BRANCH   5  87
ATOM     87  CB  ARG     1      64.697  43.625  46.346  1.00  0.00     0.042 C 
BRANCH  87  88
ATOM     88  CG  ARG     1      65.808  43.337  47.374  1.00  0.00     0.027 C 
BRANCH  88  89
ATOM     89  CD  ARG     1      66.162  44.536  48.265  1.00  0.00     0.116 C 
BRANCH  89  90
ATOM     90  NE  ARG     1      65.065  45.523  48.368  1.00  0.00    -0.212 N 
ATOM     91  HE  ARG     1      64.415  45.530  47.611  1.00 99.99     0.178 HD
ATOM     92  CZ  ARG     1      64.925  46.442  49.334  1.00  0.00     0.666 C 
ATOM     93  NH1 ARG     1      65.811  46.572  50.315  1.00  0.00    -0.235 N 
ATOM     94  NH2 ARG     1      63.860  47.233  49.361  1.00  0.00    -0.235 N 
ATOM     95 2HH1 ARG     1      66.606  45.970  50.325  1.00 99.99     0.174 HD
ATOM     96 1HH1 ARG     1      65.681  47.254  51.032  1.00 99.99     0.174 HD
ATOM     97 2HH2 ARG     1      63.145  47.148  48.669  1.00 99.99     0.174 HD
ATOM     98 1HH2 ARG     1      63.761  47.901  50.096  1.00 99.99     0.174 HD
ENDBRANCH  89  90
ENDBRANCH  88  89
ENDBRANCH  87  88
ENDBRANCH   5  87
ENDBRANCH   1   5
TORSDOF 31
ENDMDL
MODEL 5
REMARK VINA RESULT:      -5.5      2.286      8.337
REMARK  31 active torsions:
REMARK  status: ('A' for Active; 'I' for Inactive)
REMARK    1  A    between atoms: N_1  and  CA_2 
REMARK    2  A    between atoms: CA_2  and  C_3 
REMARK    3  A    between atoms: CA_2  and  CB_5 
REMARK       I    between atoms: C_3  and  N_20 
REMARK    4  A    between atoms: CB_5  and  CG_6 
REMARK    5  A    between atoms: CG_6  and  CD_7 
REMARK    6  A    between atoms: CD_7  and  NE_8 
REMARK       I    between atoms: NE_8  and  CZ_9 
REMARK       I    between atoms: CZ_9  and  NH1_10 
REMARK       I    between atoms: CZ_9  and  NH2_11 
REMARK    7  A    between atoms: N_20  and  CA_21 
REMARK    8  A    between atoms: CA_21  and  CB_24 
REMARK    9  A    between atoms: CA_21  and  C_22 
REMARK       I    between atoms: C_22  and  N_37 
REMARK   10  A    between atoms: CB_24  and  CG_25 
REMARK   11  A    between atoms: CG_25  and  CD_26 
REMARK   12  A    between atoms: CD_26  and  NE_27 
REMARK       I    between atoms: NE_27  and  CZ_28 
REMARK       I    between atoms: CZ_28  and  NH2_30 
REMARK       I    between atoms: CZ_28  and  NH1_29 
REMARK   13  A    between atoms: N_37  and  CA_38 
REMARK   14  A    between atoms: CA_38  and  CB_41 
REMARK   15  A    between atoms: CA_38  and  C_39 
REMARK       I    between atoms: C_39  and  N_53 
REMARK   16  A    between atoms: CB_41  and  CG_42 
REMARK   17  A    between atoms: N_53  and  CA_54 
REMARK   18  A    between atoms: CA_54  and  C_55 
REMARK   19  A    between atoms: CA_54  and  CB_57 
REMARK       I    between atoms: C_55  and  N_65 
REMARK   20  A    between atoms: CB_57  and  CG_58 
REMARK   21  A    between atoms: CG_58  and  CD_59 
REMARK       I    between atoms: CD_59  and  NE2_61 
REMARK   22  A    between atoms: N_65  and  CA_66 
REMARK   23  A    between atoms: CA_66  and  C_67 
REMARK   24  A    between atoms: CA_66  and  CB_69 
REMARK       I    between atoms: C_67  and  N_81 
REMARK   25  A    between atoms: CB_69  and  CG_70 
REMARK   26  A    between atoms: N_81  and  CA_82 
REMARK   27  A    between atoms: CA_82  and  CB_85 
REMARK   28  A    between atoms: CA_82  and  C_83 
REMARK   29  A    between atoms: CB_85  and  CG_86 
REMARK   30  A    between atoms: CG_86  and  CD_87 
REMARK   31  A    between atoms: CD_87  and  NE_88 
REMARK       I    between atoms: NE_88  and  CZ_89 
REMARK       I    between atoms: CZ_89  and  NH1_90 
ROOT
ATOM      1  N   ARG     1      59.472  43.269  47.344  1.00  0.00    -0.058 N 
ATOM      2  H1  ARG     1      59.875  44.169  47.500  1.00 99.99     0.276 HD
ATOM      3  H2  ARG     1      59.513  42.728  48.171  1.00 99.99     0.276 HD
ATOM      4  H3  ARG     1      60.047  42.767  46.696  1.00 99.99     0.276 HD
ENDROOT
BRANCH   1   5
ATOM      5  CA  ARG     1      58.091  43.411  46.813  1.00  0.00     0.255 C 
BRANCH   5   6
ATOM      6  C   ARG     1      56.999  43.673  47.884  1.00  0.00     0.259 C 
ATOM      7  O   ARG     1      56.381  44.730  47.812  1.00  0.00    -0.271 OA
ATOM      8  N   ARG     2      56.876  42.856  48.945  1.00  0.00    -0.338 N 
ATOM      9  H   ARG     2      57.388  42.000  49.015  1.00 99.99     0.164 HD
BRANCH   8  10
ATOM     10  CA  ARG     2      55.830  43.028  49.990  1.00  0.00     0.159 C 
BRANCH  10  11
ATOM     11  CB  ARG     2      54.631  42.105  49.694  1.00  0.00     0.034 C 
BRANCH  11  12
ATOM     12  CG  ARG     2      54.942  40.820  48.905  1.00  0.00     0.027 C 
BRANCH  12  13
ATOM     13  CD  ARG     2      53.997  39.653  49.215  1.00  0.00     0.116 C 
BRANCH  13  14
ATOM     14  NE  ARG     2      53.453  39.107  47.956  1.00  0.00    -0.212 N 
ATOM     15  HE  ARG     2      52.760  39.671  47.513  1.00 99.99     0.178 HD
ATOM     16  CZ  ARG     2      53.805  37.961  47.362  1.00  0.00     0.666 C 
ATOM     17  NH2 ARG     2      53.184  37.558  46.261  1.00  0.00    -0.235 N 
ATOM     18  NH1 ARG     2      54.748  37.173  47.860  1.00  0.00    -0.235 N 
ATOM     19 1HH2 ARG     2      53.465  36.702  45.829  1.00 99.99     0.174 HD
ATOM     20 2HH2 ARG     2      52.446  38.097  45.863  1.00 99.99     0.174 HD
ATOM     21 2HH1 ARG     2      55.223  37.451  48.693  1.00 99.99     0.174 HD
ATOM     22 1HH1 ARG     2      55.003  36.327  47.395  1.00 99.99     0.174 HD
ENDBRANCH  13  14
ENDBRANCH  12  13
ENDBRANCH  11  12
ENDBRANCH  10  11
BRANCH  10  23
ATOM     23  C   ARG     2      56.309  42.888  51.454  1.00  0.00     0.251 C 
ATOM     24  O   ARG     2      55.850  43.639  52.310  1.00  0.00    -0.271 OA
ATOM     25  N   TRP     3      57.322  42.055  51.704  1.00  0.00    -0.337 N 
ATOM     26  H   TRP     3      57.620  41.377  51.037  1.00 99.99     0.164 HD
BRANCH  25  27
ATOM     27  CA  TRP     3      57.974  41.923  53.030  1.00  0.00     0.164 C 
BRANCH  27  28
ATOM     28  CB  TRP     3      57.727  40.491  53.526  1.00  0.00     0.059 C 
BRANCH  28  29
ATOM     29  CG  TRP     3      56.257  40.067  53.466  1.00  0.00    -0.016 A 
ATOM     30  CD2 TRP     3      55.747  38.984  52.769  1.00  0.00    -0.001 A 
ATOM     31  CE2 TRP     3      54.407  38.888  53.107  1.00  0.00     0.042 A 
ATOM     32  CE3 TRP     3      56.320  38.081  51.888  1.00  0.00     0.014 A 
ATOM     33  CZ2 TRP     3      53.636  37.861  52.570  1.00  0.00     0.030 A 
ATOM     34  NE1 TRP     3      54.142  39.883  53.950  1.00  0.00    -0.365 N 
ATOM     35  CH2 TRP     3      54.212  36.940  51.702  1.00  0.00     0.002 A 
ATOM     36  CZ3 TRP     3      55.553  37.057  51.351  1.00  0.00     0.001 A 
ATOM     37  HE1 TRP     3      53.252  40.070  54.367  1.00 99.99     0.165 HD
ATOM     38  CD1 TRP     3      55.252  40.594  54.160  1.00  0.00     0.097 A 
ENDBRANCH  28  29
ENDBRANCH  27  28
BRANCH  27  39
ATOM     39  C   TRP     3      59.483  42.271  53.026  1.00  0.00     0.251 C 
ATOM     40  O   TRP     3      59.891  43.262  52.429  1.00  0.00    -0.271 OA
ATOM     41  N   GLN     4      60.305  41.352  53.532  1.00  0.00    -0.338 N 
ATOM     42  H   GLN     4      59.963  40.465  53.847  1.00 99.99     0.164 HD
BRANCH  41  43
ATOM     43  CA  GLN     4      61.784  41.448  53.582  1.00  0.00     0.160 C 
BRANCH  43  44
ATOM     44  C   GLN     4      62.506  40.915  52.323  1.00  0.00     0.251 C 
ATOM     45  N   TRP     5      62.297  41.594  51.195  1.00  0.00    -0.337 N 
ATOM     46  H   TRP     5      61.680  42.381  51.169  1.00 99.99     0.164 HD
ATOM     47  O   GLN     4      63.086  39.830  52.355  1.00  0.00    -0.271 OA
BRANCH  45  48
ATOM     48  CA  TRP     5      62.886  41.266  49.878  1.00  0.00     0.164 C 
BRANCH  48  49
ATOM     49  C   TRP     5      62.754  42.420  48.854  1.00  0.00     0.251 C 
ATOM     50  O   TRP     5      61.945  43.331  49.024  1.00  0.00    -0.271 OA
ATOM     51  N   ARG     6      63.538  42.351  47.778  1.00  0.00    -0.336 N 
ATOM     52  H   ARG     6      64.154  41.575  47.642  1.00 99.99     0.164 HD
BRANCH  51  53
ATOM     53  CA  ARG     6      63.620  43.392  46.723  1.00  0.00     0.168 C 
BRANCH  53  54
ATOM     54  CB  ARG     6      65.090  43.798  46.505  1.00  0.00     0.035 C 
BRANCH  54  55
ATOM     55  CG  ARG     6      65.950  43.579  47.760  1.00  0.00     0.027 C 
BRANCH  55  56
ATOM     56  CD  ARG     6      66.252  44.864  48.546  1.00  0.00     0.116 C 
BRANCH  56  57
ATOM     57  NE  ARG     6      65.209  45.910  48.454  1.00  0.00    -0.212 N 
ATOM     58  HE  ARG     6      65.178  46.389  47.579  1.00 99.99     0.178 HD
ATOM     59  CZ  ARG     6      64.238  46.191  49.330  1.00  0.00     0.666 C 
ATOM     60  NH2 ARG     6      63.753  47.424  49.373  1.00  0.00    -0.235 N 
ATOM     61  NH1 ARG     6      63.915  45.385  50.333  1.00  0.00    -0.235 N 
ATOM     62 1HH2 ARG     6      63.041  47.653  50.035  1.00 99.99     0.174 HD
ATOM     63 2HH2 ARG     6      64.102  48.120  48.749  1.00 99.99     0.174 HD
ATOM     64 2HH1 ARG     6      64.358  44.495  50.411  1.00 99.99     0.174 HD
ATOM     65 1HH1 ARG     6      63.185  45.640  50.964  1.00 99.99     0.174 HD
ENDBRANCH  56  57
ENDBRANCH  55  56
ENDBRANCH  54  55
ENDBRANCH  53  54
BRANCH  53  66
ATOM     66  C   ARG     6      63.034  42.861  45.401  1.00  0.00     0.206 C 
ATOM     67  OXT ARG     6      61.820  42.580  45.430  1.00 99.99    -0.646 OA
ATOM     68  O   ARG     6      63.782  42.827  44.400  1.00 99.99    -0.646 OA
ENDBRANCH  53  66
ENDBRANCH  51  53
ENDBRANCH  48  49
BRANCH  48  69
ATOM     69  CB  TRP     5      62.157  40.046  49.301  1.00  0.00     0.059 C 
BRANCH  69  70
ATOM     70  CG  TRP     5      60.647  40.117  49.052  1.00  0.00    -0.016 A 
ATOM     71  CD2 TRP     5      60.073  39.641  47.887  1.00  0.00    -0.001 A 
ATOM     72  CE3 TRP     5      60.628  39.242  46.679  1.00  0.00     0.014 A 
ATOM     73  CE2 TRP     5      58.725  39.462  48.140  1.00  0.00     0.042 A 
ATOM     74  CZ3 TRP     5      59.825  38.654  45.712  1.00  0.00     0.001 A 
ATOM     75  CH2 TRP     5      58.466  38.483  45.953  1.00  0.00     0.002 A 
ATOM     76  CZ2 TRP     5      57.916  38.885  47.166  1.00  0.00     0.030 A 
ATOM     77  NE1 TRP     5      58.512  39.834  49.401  1.00  0.00    -0.365 N 
ATOM     78  HE1 TRP     5      57.640  39.766  49.887  1.00 99.99     0.165 HD
ATOM     79  CD1 TRP     5      59.663  40.240  49.942  1.00  0.00     0.097 A 
ENDBRANCH  69  70
ENDBRANCH  48  69
ENDBRANCH  45  48
ENDBRANCH  43  44
BRANCH  43  80
ATOM     80  CB  GLN     4      62.282  40.635  54.781  1.00  0.00     0.042 C 
BRANCH  80  81
ATOM     81  CG  GLN     4      63.176  41.427  55.734  1.00  0.00     0.090 C 
BRANCH  81  82
ATOM     82  CD  GLN     4      64.604  40.881  55.728  1.00  0.00     0.227 C 
ATOM     83  OE1 GLN     4      65.308  40.835  56.727  1.00  0.00    -0.273 OA
ATOM     84  NE2 GLN     4      65.101  40.613  54.543  1.00  0.00    -0.369 N 
ATOM     85 1HE2 GLN     4      66.029  40.252  54.518  1.00 99.99     0.159 HD
ATOM     86 2HE2 GLN     4      64.557  40.757  53.723  1.00 99.99     0.159 HD
ENDBRANCH  81  82
ENDBRANCH  80  81
ENDBRANCH  43  80
ENDBRANCH  41  43
ENDBRANCH  27  39
ENDBRANCH  25  27
ENDBRANCH  10  23
ENDBRANCH   8  10
ENDBRANCH   5   6
BRANCH   5  87
ATOM     87  CB  ARG     1      57.688  42.255  45.879  1.00  0.00     0.042 C 
BRANCH  87  88
ATOM     88  CG  ARG     1      58.683  41.995  44.732  1.00  0.00     0.027 C 
BRANCH  88  89
ATOM     89  CD  ARG     1      58.807  43.156  43.735  1.00  0.00     0.116 C 
BRANCH  89  90
ATOM     90  NE  ARG     1      59.555  42.789  42.512  1.00  0.00    -0.212 N 
ATOM     91  HE  ARG     1      60.509  43.083  42.483  1.00 99.99     0.178 HD
ATOM     92  CZ  ARG     1      59.045  42.180  41.433  1.00  0.00     0.666 C 
ATOM     93  NH1 ARG     1      57.758  41.861  41.349  1.00  0.00    -0.235 N 
ATOM     94  NH2 ARG     1      59.829  41.838  40.419  1.00  0.00    -0.235 N 
ATOM     95 2HH1 ARG     1      57.157  42.089  42.112  1.00 99.99     0.174 HD
ATOM     96 1HH1 ARG     1      57.400  41.396  40.542  1.00 99.99     0.174 HD
ATOM     97 2HH2 ARG     1      60.810  42.020  40.450  1.00 99.99     0.174 HD
ATOM     98 1HH2 ARG     1      59.437  41.369  39.629  1.00 99.99     0.174 HD
ENDBRANCH  89  90
ENDBRANCH  88  89
ENDBRANCH  87  88
ENDBRANCH   5  87
ENDBRANCH   1   5
TORSDOF 31
ENDMDL
MODEL 6
REMARK VINA RESULT:      -5.5      2.304      5.821
REMARK  31 active torsions:
REMARK  status: ('A' for Active; 'I' for Inactive)
REMARK    1  A    between atoms: N_1  and  CA_2 
REMARK    2  A    between atoms: CA_2  and  C_3 
REMARK    3  A    between atoms: CA_2  and  CB_5 
REMARK       I    between atoms: C_3  and  N_20 
REMARK    4  A    between atoms: CB_5  and  CG_6 
REMARK    5  A    between atoms: CG_6  and  CD_7 
REMARK    6  A    between atoms: CD_7  and  NE_8 
REMARK       I    between atoms: NE_8  and  CZ_9 
REMARK       I    between atoms: CZ_9  and  NH1_10 
REMARK       I    between atoms: CZ_9  and  NH2_11 
REMARK    7  A    between atoms: N_20  and  CA_21 
REMARK    8  A    between atoms: CA_21  and  CB_24 
REMARK    9  A    between atoms: CA_21  and  C_22 
REMARK       I    between atoms: C_22  and  N_37 
REMARK   10  A    between atoms: CB_24  and  CG_25 
REMARK   11  A    between atoms: CG_25  and  CD_26 
REMARK   12  A    between atoms: CD_26  and  NE_27 
REMARK       I    between atoms: NE_27  and  CZ_28 
REMARK       I    between atoms: CZ_28  and  NH2_30 
REMARK       I    between atoms: CZ_28  and  NH1_29 
REMARK   13  A    between atoms: N_37  and  CA_38 
REMARK   14  A    between atoms: CA_38  and  CB_41 
REMARK   15  A    between atoms: CA_38  and  C_39 
REMARK       I    between atoms: C_39  and  N_53 
REMARK   16  A    between atoms: CB_41  and  CG_42 
REMARK   17  A    between atoms: N_53  and  CA_54 
REMARK   18  A    between atoms: CA_54  and  C_55 
REMARK   19  A    between atoms: CA_54  and  CB_57 
REMARK       I    between atoms: C_55  and  N_65 
REMARK   20  A    between atoms: CB_57  and  CG_58 
REMARK   21  A    between atoms: CG_58  and  CD_59 
REMARK       I    between atoms: CD_59  and  NE2_61 
REMARK   22  A    between atoms: N_65  and  CA_66 
REMARK   23  A    between atoms: CA_66  and  C_67 
REMARK   24  A    between atoms: CA_66  and  CB_69 
REMARK       I    between atoms: C_67  and  N_81 
REMARK   25  A    between atoms: CB_69  and  CG_70 
REMARK   26  A    between atoms: N_81  and  CA_82 
REMARK   27  A    between atoms: CA_82  and  CB_85 
REMARK   28  A    between atoms: CA_82  and  C_83 
REMARK   29  A    between atoms: CB_85  and  CG_86 
REMARK   30  A    between atoms: CG_86  and  CD_87 
REMARK   31  A    between atoms: CD_87  and  NE_88 
REMARK       I    between atoms: NE_88  and  CZ_89 
REMARK       I    between atoms: CZ_89  and  NH1_90 
ROOT
ATOM      1  N   ARG     1      62.914  43.317  48.184  1.00  0.00    -0.058 N 
ATOM      2  H1  ARG     1      63.759  43.349  48.714  1.00 99.99     0.276 HD
ATOM      3  H2  ARG     1      62.814  42.432  47.752  1.00 99.99     0.276 HD
ATOM      4  H3  ARG     1      62.991  43.955  47.415  1.00 99.99     0.276 HD
ENDROOT
BRANCH   1   5
ATOM      5  CA  ARG     1      61.755  43.675  49.043  1.00  0.00     0.255 C 
BRANCH   5   6
ATOM      6  C   ARG     1      60.374  43.205  48.513  1.00  0.00     0.259 C 
ATOM      7  O   ARG     1      59.824  42.287  49.111  1.00  0.00    -0.271 OA
ATOM      8  N   ARG     2      59.902  43.666  47.342  1.00  0.00    -0.338 N 
ATOM      9  H   ARG     2      60.354  44.406  46.843  1.00 99.99     0.164 HD
BRANCH   8  10
ATOM     10  CA  ARG     2      58.572  43.286  46.791  1.00  0.00     0.159 C 
BRANCH  10  11
ATOM     11  CB  ARG     2      58.604  41.828  46.291  1.00  0.00     0.034 C 
BRANCH  11  12
ATOM     12  CG  ARG     2      57.802  41.532  45.011  1.00  0.00     0.027 C 
BRANCH  12  13
ATOM     13  CD  ARG     2      58.642  40.950  43.867  1.00  0.00     0.116 C 
BRANCH  13  14
ATOM     14  NE  ARG     2      59.913  41.691  43.759  1.00  0.00    -0.212 N 
ATOM     15  HE  ARG     2      60.661  41.337  44.316  1.00 99.99     0.178 HD
ATOM     16  CZ  ARG     2      60.153  42.761  42.992  1.00  0.00     0.666 C 
ATOM     17  NH2 ARG     2      61.330  43.373  43.042  1.00  0.00    -0.235 N 
ATOM     18  NH1 ARG     2      59.228  43.272  42.189  1.00  0.00    -0.235 N 
ATOM     19 1HH2 ARG     2      61.491  44.166  42.458  1.00 99.99     0.174 HD
ATOM     20 2HH2 ARG     2      62.049  43.049  43.652  1.00 99.99     0.174 HD
ATOM     21 2HH1 ARG     2      58.332  42.834  42.142  1.00 99.99     0.174 HD
ATOM     22 1HH1 ARG     2      59.432  44.064  41.617  1.00 99.99     0.174 HD
ENDBRANCH  13  14
ENDBRANCH  12  13
ENDBRANCH  11  12
ENDBRANCH  10  11
BRANCH  10  23
ATOM     23  C   ARG     2      57.360  43.544  47.717  1.00  0.00     0.251 C 
ATOM     24  O   ARG     2      56.904  44.681  47.807  1.00  0.00    -0.271 OA
ATOM     25  N   TRP     3      56.949  42.546  48.503  1.00  0.00    -0.337 N 
ATOM     26  H   TRP     3      57.246  41.606  48.355  1.00 99.99     0.164 HD
BRANCH  25  27
ATOM     27  CA  TRP     3      55.893  42.690  49.535  1.00  0.00     0.164 C 
BRANCH  27  28
ATOM     28  CB  TRP     3      54.862  41.578  49.299  1.00  0.00     0.059 C 
BRANCH  28  29
ATOM     29  CG  TRP     3      55.477  40.269  48.794  1.00  0.00    -0.016 A 
ATOM     30  CD2 TRP     3      55.416  39.785  47.498  1.00  0.00    -0.001 A 
ATOM     31  CE2 TRP     3      56.221  38.658  47.456  1.00  0.00     0.042 A 
ATOM     32  CE3 TRP     3      54.749  40.219  46.364  1.00  0.00     0.014 A 
ATOM     33  CZ2 TRP     3      56.374  37.969  46.257  1.00  0.00     0.030 A 
ATOM     34  NE1 TRP     3      56.714  38.481  48.680  1.00  0.00    -0.365 N 
ATOM     35  CH2 TRP     3      55.723  38.413  45.112  1.00  0.00     0.002 A 
ATOM     36  CZ3 TRP     3      54.900  39.533  45.168  1.00  0.00     0.001 A 
ATOM     37  HE1 TRP     3      57.331  37.744  48.957  1.00 99.99     0.165 HD
ATOM     38  CD1 TRP     3      56.262  39.446  49.484  1.00  0.00     0.097 A 
ENDBRANCH  28  29
ENDBRANCH  27  28
BRANCH  27  39
ATOM     39  C   TRP     3      56.427  42.670  50.989  1.00  0.00     0.251 C 
ATOM     40  O   TRP     3      55.868  43.322  51.865  1.00  0.00    -0.271 OA
ATOM     41  N   GLN     4      57.606  42.077  51.180  1.00  0.00    -0.338 N 
ATOM     42  H   GLN     4      58.135  41.713  50.411  1.00 99.99     0.164 HD
BRANCH  41  43
ATOM     43  CA  GLN     4      58.330  41.988  52.471  1.00  0.00     0.160 C 
BRANCH  43  44
ATOM     44  C   GLN     4      59.861  42.168  52.363  1.00  0.00     0.251 C 
ATOM     45  N   TRP     5      60.572  41.055  52.180  1.00  0.00    -0.337 N 
ATOM     46  H   TRP     5      60.133  40.157  52.149  1.00 99.99     0.164 HD
ATOM     47  O   GLN     4      60.375  43.258  52.612  1.00  0.00    -0.271 OA
BRANCH  45  48
ATOM     48  CA  TRP     5      62.044  40.993  52.047  1.00  0.00     0.164 C 
BRANCH  48  49
ATOM     49  C   TRP     5      62.506  40.630  50.615  1.00  0.00     0.251 C 
ATOM     50  O   TRP     5      63.564  41.062  50.160  1.00  0.00    -0.271 OA
ATOM     51  N   ARG     6      61.684  39.856  49.905  1.00  0.00    -0.336 N 
ATOM     52  H   ARG     6      60.807  39.557  50.282  1.00 99.99     0.164 HD
BRANCH  51  53
ATOM     53  CA  ARG     6      61.977  39.334  48.546  1.00  0.00     0.168 C 
BRANCH  53  54
ATOM     54  CB  ARG     6      62.992  38.179  48.641  1.00  0.00     0.035 C 
BRANCH  54  55
ATOM     55  CG  ARG     6      64.108  38.292  47.591  1.00  0.00     0.027 C 
BRANCH  55  56
ATOM     56  CD  ARG     6      64.417  39.733  47.156  1.00  0.00     0.116 C 
BRANCH  56  57
ATOM     57  NE  ARG     6      65.316  40.479  48.064  1.00  0.00    -0.212 N 
ATOM     58  HE  ARG     6      65.570  39.985  48.893  1.00 99.99     0.178 HD
ATOM     59  CZ  ARG     6      65.924  41.651  47.850  1.00  0.00     0.666 C 
ATOM     60  NH2 ARG     6      66.234  42.411  48.891  1.00  0.00    -0.235 N 
ATOM     61  NH1 ARG     6      65.998  42.217  46.652  1.00  0.00    -0.235 N 
ATOM     62 1HH2 ARG     6      66.672  43.296  48.745  1.00 99.99     0.174 HD
ATOM     63 2HH2 ARG     6      66.028  42.098  49.815  1.00 99.99     0.174 HD
ATOM     64 2HH1 ARG     6      65.652  41.728  45.855  1.00 99.99     0.174 HD
ATOM     65 1HH1 ARG     6      66.459  43.096  46.542  1.00 99.99     0.174 HD
ENDBRANCH  56  57
ENDBRANCH  55  56
ENDBRANCH  54  55
ENDBRANCH  53  54
BRANCH  53  66
ATOM     66  C   ARG     6      60.686  38.828  47.877  1.00  0.00     0.206 C 
ATOM     67  OXT ARG     6      60.852  38.029  46.935  1.00 99.99    -0.646 OA
ATOM     68  O   ARG     6      59.592  39.186  48.366  1.00 99.99    -0.646 OA
ENDBRANCH  53  66
ENDBRANCH  51  53
ENDBRANCH  48  49
BRANCH  48  69
ATOM     69  CB  TRP     5      62.580  39.912  52.996  1.00  0.00     0.059 C 
BRANCH  69  70
ATOM     70  CG  TRP     5      63.043  40.305  54.402  1.00  0.00    -0.016 A 
ATOM     71  CD2 TRP     5      64.383  40.359  54.744  1.00  0.00    -0.001 A 
ATOM     72  CE3 TRP     5      65.522  39.908  54.092  1.00  0.00     0.014 A 
ATOM     73  CE2 TRP     5      64.480  41.125  55.892  1.00  0.00     0.042 A 
ATOM     74  CZ3 TRP     5      66.776  40.230  54.593  1.00  0.00     0.001 A 
ATOM     75  CH2 TRP     5      66.883  40.989  55.753  1.00  0.00     0.002 A 
ATOM     76  CZ2 TRP     5      65.736  41.437  56.402  1.00  0.00     0.030 A 
ATOM     77  NE1 TRP     5      63.243  41.494  56.221  1.00  0.00    -0.365 N 
ATOM     78  HE1 TRP     5      63.000  42.101  56.978  1.00 99.99     0.165 HD
ATOM     79  CD1 TRP     5      62.382  40.989  55.335  1.00  0.00     0.097 A 
ENDBRANCH  69  70
ENDBRANCH  48  69
ENDBRANCH  45  48
ENDBRANCH  43  44
BRANCH  43  80
ATOM     80  CB  GLN     4      58.067  40.607  53.079  1.00  0.00     0.042 C 
BRANCH  80  81
ATOM     81  CG  GLN     4      57.284  40.651  54.391  1.00  0.00     0.090 C 
BRANCH  81  82
ATOM     82  CD  GLN     4      55.783  40.509  54.138  1.00  0.00     0.227 C 
ATOM     83  OE1 GLN     4      54.933  40.796  54.970  1.00  0.00    -0.273 OA
ATOM     84  NE2 GLN     4      55.452  39.900  53.024  1.00  0.00    -0.369 N 
ATOM     85 1HE2 GLN     4      54.479  39.803  52.837  1.00 99.99     0.159 HD
ATOM     86 2HE2 GLN     4      56.155  39.572  52.401  1.00 99.99     0.159 HD
ENDBRANCH  81  82
ENDBRANCH  80  81
ENDBRANCH  43  80
ENDBRANCH  41  43
ENDBRANCH  27  39
ENDBRANCH  25  27
ENDBRANCH  10  23
ENDBRANCH   8  10
ENDBRANCH   5   6
BRANCH   5  87
ATOM     87  CB  ARG     1      61.728  45.168  49.419  1.00  0.00     0.042 C 
BRANCH  87  88
ATOM     88  CG  ARG     1      62.810  45.582  50.435  1.00  0.00     0.027 C 
BRANCH  88  89
ATOM     89  CD  ARG     1      63.726  46.713  49.949  1.00  0.00     0.116 C 
BRANCH  89  90
ATOM     90  NE  ARG     1      64.602  46.306  48.828  1.00  0.00    -0.212 N 
ATOM     91  HE  ARG     1      64.142  46.125  47.961  1.00 99.99     0.178 HD
ATOM     92  CZ  ARG     1      65.922  46.087  48.904  1.00  0.00     0.666 C 
ATOM     93  NH1 ARG     1      66.588  46.196  50.049  1.00  0.00    -0.235 N 
ATOM     94  NH2 ARG     1      66.619  45.791  47.815  1.00  0.00    -0.235 N 
ATOM     95 2HH1 ARG     1      66.085  46.441  50.874  1.00 99.99     0.174 HD
ATOM     96 1HH1 ARG     1      67.574  46.042  50.082  1.00 99.99     0.174 HD
ATOM     97 2HH2 ARG     1      66.173  45.737  46.924  1.00 99.99     0.174 HD
ATOM     98 1HH2 ARG     1      67.605  45.648  47.884  1.00 99.99     0.174 HD
ENDBRANCH  89  90
ENDBRANCH  88  89
ENDBRANCH  87  88
ENDBRANCH   5  87
ENDBRANCH   1   5
TORSDOF 31
ENDMDL
MODEL 7
REMARK VINA RESULT:      -5.4      2.357      5.065
REMARK  31 active torsions:
REMARK  status: ('A' for Active; 'I' for Inactive)
REMARK    1  A    between atoms: N_1  and  CA_2 
REMARK    2  A    between atoms: CA_2  and  C_3 
REMARK    3  A    between atoms: CA_2  and  CB_5 
REMARK       I    between atoms: C_3  and  N_20 
REMARK    4  A    between atoms: CB_5  and  CG_6 
REMARK    5  A    between atoms: CG_6  and  CD_7 
REMARK    6  A    between atoms: CD_7  and  NE_8 
REMARK       I    between atoms: NE_8  and  CZ_9 
REMARK       I    between atoms: CZ_9  and  NH1_10 
REMARK       I    between atoms: CZ_9  and  NH2_11 
REMARK    7  A    between atoms: N_20  and  CA_21 
REMARK    8  A    between atoms: CA_21  and  CB_24 
REMARK    9  A    between atoms: CA_21  and  C_22 
REMARK       I    between atoms: C_22  and  N_37 
REMARK   10  A    between atoms: CB_24  and  CG_25 
REMARK   11  A    between atoms: CG_25  and  CD_26 
REMARK   12  A    between atoms: CD_26  and  NE_27 
REMARK       I    between atoms: NE_27  and  CZ_28 
REMARK       I    between atoms: CZ_28  and  NH2_30 
REMARK       I    between atoms: CZ_28  and  NH1_29 
REMARK   13  A    between atoms: N_37  and  CA_38 
REMARK   14  A    between atoms: CA_38  and  CB_41 
REMARK   15  A    between atoms: CA_38  and  C_39 
REMARK       I    between atoms: C_39  and  N_53 
REMARK   16  A    between atoms: CB_41  and  CG_42 
REMARK   17  A    between atoms: N_53  and  CA_54 
REMARK   18  A    between atoms: CA_54  and  C_55 
REMARK   19  A    between atoms: CA_54  and  CB_57 
REMARK       I    between atoms: C_55  and  N_65 
REMARK   20  A    between atoms: CB_57  and  CG_58 
REMARK   21  A    between atoms: CG_58  and  CD_59 
REMARK       I    between atoms: CD_59  and  NE2_61 
REMARK   22  A    between atoms: N_65  and  CA_66 
REMARK   23  A    between atoms: CA_66  and  C_67 
REMARK   24  A    between atoms: CA_66  and  CB_69 
REMARK       I    between atoms: C_67  and  N_81 
REMARK   25  A    between atoms: CB_69  and  CG_70 
REMARK   26  A    between atoms: N_81  and  CA_82 
REMARK   27  A    between atoms: CA_82  and  CB_85 
REMARK   28  A    between atoms: CA_82  and  C_83 
REMARK   29  A    between atoms: CB_85  and  CG_86 
REMARK   30  A    between atoms: CG_86  and  CD_87 
REMARK   31  A    between atoms: CD_87  and  NE_88 
REMARK       I    between atoms: NE_88  and  CZ_89 
REMARK       I    between atoms: CZ_89  and  NH1_90 
ROOT
ATOM      1  N   ARG     1      67.225  39.879  48.085  1.00  0.00    -0.058 N 
ATOM      2  H1  ARG     1      68.198  39.710  48.229  1.00 99.99     0.276 HD
ATOM      3  H2  ARG     1      66.687  39.161  48.503  1.00 99.99     0.276 HD
ATOM      4  H3  ARG     1      67.024  39.795  47.107  1.00 99.99     0.276 HD
ENDROOT
BRANCH   1   5
ATOM      5  CA  ARG     1      66.862  41.234  48.577  1.00  0.00     0.255 C 
BRANCH   5   6
ATOM      6  C   ARG     1      65.340  41.538  48.602  1.00  0.00     0.259 C 
ATOM      7  O   ARG     1      64.612  40.821  47.925  1.00  0.00    -0.271 OA
ATOM      8  N   ARG     2      64.879  42.653  49.195  1.00  0.00    -0.338 N 
ATOM      9  H   ARG     2      65.471  43.248  49.737  1.00 99.99     0.164 HD
BRANCH   8  10
ATOM     10  CA  ARG     2      63.431  42.988  49.287  1.00  0.00     0.159 C 
BRANCH  10  11
ATOM     11  CB  ARG     2      63.222  44.168  50.257  1.00  0.00     0.034 C 
BRANCH  11  12
ATOM     12  CG  ARG     2      62.304  45.300  49.760  1.00  0.00     0.027 C 
BRANCH  12  13
ATOM     13  CD  ARG     2      63.045  46.596  49.408  1.00  0.00     0.116 C 
BRANCH  13  14
ATOM     14  NE  ARG     2      64.374  46.596  50.049  1.00  0.00    -0.212 N 
ATOM     15  HE  ARG     2      64.382  46.861  51.010  1.00 99.99     0.178 HD
ATOM     16  CZ  ARG     2      65.539  46.271  49.477  1.00  0.00     0.666 C 
ATOM     17  NH2 ARG     2      66.674  46.380  50.156  1.00  0.00    -0.235 N 
ATOM     18  NH1 ARG     2      65.613  45.867  48.216  1.00  0.00    -0.235 N 
ATOM     19 1HH2 ARG     2      67.532  46.126  49.714  1.00 99.99     0.174 HD
ATOM     20 2HH2 ARG     2      66.678  46.709  51.097  1.00 99.99     0.174 HD
ATOM     21 2HH1 ARG     2      64.774  45.786  47.682  1.00 99.99     0.174 HD
ATOM     22 1HH1 ARG     2      66.492  45.618  47.812  1.00 99.99     0.174 HD
ENDBRANCH  13  14
ENDBRANCH  12  13
ENDBRANCH  11  12
ENDBRANCH  10  11
BRANCH  10  23
ATOM     23  C   ARG     2      62.705  43.221  47.941  1.00  0.00     0.251 C 
ATOM     24  O   ARG     2      63.274  43.848  47.052  1.00  0.00    -0.271 OA
ATOM     25  N   TRP     3      61.422  42.861  47.853  1.00  0.00    -0.337 N 
ATOM     26  H   TRP     3      60.997  42.265  48.529  1.00 99.99     0.164 HD
BRANCH  25  27
ATOM     27  CA  TRP     3      60.564  43.148  46.677  1.00  0.00     0.164 C 
BRANCH  27  28
ATOM     28  CB  TRP     3      60.678  41.953  45.720  1.00  0.00     0.059 C 
BRANCH  28  29
ATOM     29  CG  TRP     3      60.641  42.347  44.241  1.00  0.00    -0.016 A 
ATOM     30  CD2 TRP     3      59.698  41.941  43.310  1.00  0.00    -0.001 A 
ATOM     31  CE2 TRP     3      59.960  42.643  42.146  1.00  0.00     0.042 A 
ATOM     32  CE3 TRP     3      58.646  41.041  43.372  1.00  0.00     0.014 A 
ATOM     33  CZ2 TRP     3      59.145  42.456  41.034  1.00  0.00     0.030 A 
ATOM     34  NE1 TRP     3      61.021  43.412  42.380  1.00  0.00    -0.365 N 
ATOM     35  CH2 TRP     3      58.075  41.569  41.098  1.00  0.00     0.002 A 
ATOM     36  CZ3 TRP     3      57.833  40.852  42.264  1.00  0.00     0.001 A 
ATOM     37  HE1 TRP     3      61.444  44.035  41.721  1.00 99.99     0.165 HD
ATOM     38  CD1 TRP     3      61.432  43.229  43.637  1.00  0.00     0.097 A 
ENDBRANCH  28  29
ENDBRANCH  27  28
BRANCH  27  39
ATOM     39  C   TRP     3      59.088  43.452  47.034  1.00  0.00     0.251 C 
ATOM     40  O   TRP     3      58.733  44.598  47.289  1.00  0.00    -0.271 OA
ATOM     41  N   GLN     4      58.296  42.398  47.230  1.00  0.00    -0.338 N 
ATOM     42  H   GLN     4      58.656  41.463  47.199  1.00 99.99     0.164 HD
BRANCH  41  43
ATOM     43  CA  GLN     4      56.870  42.450  47.632  1.00  0.00     0.160 C 
BRANCH  43  44
ATOM     44  C   GLN     4      56.621  43.007  49.053  1.00  0.00     0.251 C 
ATOM     45  N   TRP     5      57.091  42.273  50.062  1.00  0.00    -0.337 N 
ATOM     46  H   TRP     5      57.546  41.398  49.899  1.00 99.99     0.164 HD
ATOM     47  O   GLN     4      55.879  43.976  49.216  1.00  0.00    -0.271 OA
BRANCH  45  48
ATOM     48  CA  TRP     5      56.970  42.614  51.496  1.00  0.00     0.164 C 
BRANCH  48  49
ATOM     49  C   TRP     5      58.130  42.050  52.350  1.00  0.00     0.251 C 
ATOM     50  O   TRP     5      58.055  42.008  53.577  1.00  0.00    -0.271 OA
ATOM     51  N   ARG     6      59.213  41.644  51.686  1.00  0.00    -0.336 N 
ATOM     52  H   ARG     6      59.267  41.731  50.690  1.00 99.99     0.164 HD
BRANCH  51  53
ATOM     53  CA  ARG     6      60.397  41.002  52.309  1.00  0.00     0.168 C 
BRANCH  53  54
ATOM     54  CB  ARG     6      60.959  39.921  51.367  1.00  0.00     0.035 C 
BRANCH  54  55
ATOM     55  CG  ARG     6      60.408  40.045  49.938  1.00  0.00     0.027 C 
BRANCH  55  56
ATOM     56  CD  ARG     6      61.408  39.643  48.843  1.00  0.00     0.116 C 
BRANCH  56  57
ATOM     57  NE  ARG     6      62.508  38.763  49.295  1.00  0.00    -0.212 N 
ATOM     58  HE  ARG     6      62.511  38.573  50.275  1.00 99.99     0.178 HD
ATOM     59  CZ  ARG     6      63.396  38.097  48.550  1.00  0.00     0.666 C 
ATOM     60  NH2 ARG     6      64.582  37.810  49.070  1.00  0.00    -0.235 N 
ATOM     61  NH1 ARG     6      63.263  37.936  47.239  1.00  0.00    -0.235 N 
ATOM     62 1HH2 ARG     6      65.261  37.329  48.518  1.00 99.99     0.174 HD
ATOM     63 2HH2 ARG     6      64.792  38.077  50.007  1.00 99.99     0.174 HD
ATOM     64 2HH1 ARG     6      62.436  38.261  46.786  1.00 99.99     0.174 HD
ATOM     65 1HH1 ARG     6      63.955  37.435  46.724  1.00 99.99     0.174 HD
ENDBRANCH  56  57
ENDBRANCH  55  56
ENDBRANCH  54  55
ENDBRANCH  53  54
BRANCH  53  66
ATOM     66  C   ARG     6      61.488  42.052  52.592  1.00  0.00     0.206 C 
ATOM     67  OXT ARG     6      62.660  41.629  52.546  1.00 99.99    -0.646 OA
ATOM     68  O   ARG     6      61.131  43.238  52.766  1.00 99.99    -0.646 OA
ENDBRANCH  53  66
ENDBRANCH  51  53
ENDBRANCH  48  49
BRANCH  48  69
ATOM     69  CB  TRP     5      55.662  42.019  52.036  1.00  0.00     0.059 C 
BRANCH  69  70
ATOM     70  CG  TRP     5      55.316  40.558  51.734  1.00  0.00    -0.016 A 
ATOM     71  CD2 TRP     5      54.417  40.208  50.743  1.00  0.00    -0.001 A 
ATOM     72  CE3 TRP     5      53.515  40.962  50.005  1.00  0.00     0.014 A 
ATOM     73  CE2 TRP     5      54.640  38.876  50.442  1.00  0.00     0.042 A 
ATOM     74  CZ3 TRP     5      52.829  40.377  48.950  1.00  0.00     0.001 A 
ATOM     75  CH2 TRP     5      53.037  39.035  48.649  1.00  0.00     0.002 A 
ATOM     76  CZ2 TRP     5      53.943  38.285  49.393  1.00  0.00     0.030 A 
ATOM     77  NE1 TRP     5      55.622  38.455  51.237  1.00  0.00    -0.365 N 
ATOM     78  HE1 TRP     5      56.040  37.547  51.213  1.00 99.99     0.165 HD
ATOM     79  CD1 TRP     5      56.016  39.461  52.021  1.00  0.00     0.097 A 
ENDBRANCH  69  70
ENDBRANCH  48  69
ENDBRANCH  45  48
ENDBRANCH  43  44
BRANCH  43  80
ATOM     80  CB  GLN     4      56.300  41.029  47.585  1.00  0.00     0.042 C 
BRANCH  80  81
ATOM     81  CG  GLN     4      56.589  40.292  46.277  1.00  0.00     0.090 C 
BRANCH  81  82
ATOM     82  CD  GLN     4      55.337  40.218  45.403  1.00  0.00     0.227 C 
ATOM     83  OE1 GLN     4      54.257  40.684  45.738  1.00  0.00    -0.273 OA
ATOM     84  NE2 GLN     4      55.441  39.471  44.328  1.00  0.00    -0.369 N 
ATOM     85 1HE2 GLN     4      54.638  39.414  43.743  1.00 99.99     0.159 HD
ATOM     86 2HE2 GLN     4      56.295  39.006  44.119  1.00 99.99     0.159 HD
ENDBRANCH  81  82
ENDBRANCH  80  81
ENDBRANCH  43  80
ENDBRANCH  41  43
ENDBRANCH  27  39
ENDBRANCH  25  27
ENDBRANCH  10  23
ENDBRANCH   8  10
ENDBRANCH   5   6
BRANCH   5  87
ATOM     87  CB  ARG     1      67.643  42.356  47.868  1.00  0.00     0.042 C 
BRANCH  87  88
ATOM     88  CG  ARG     1      67.607  42.275  46.330  1.00  0.00     0.027 C 
BRANCH  88  89
ATOM     89  CD  ARG     1      66.494  43.113  45.685  1.00  0.00     0.116 C 
BRANCH  89  90
ATOM     90  NE  ARG     1      65.378  42.290  45.168  1.00  0.00    -0.212 N 
ATOM     91  HE  ARG     1      64.704  42.000  45.844  1.00 99.99     0.178 HD
ATOM     92  CZ  ARG     1      65.248  41.847  43.910  1.00  0.00     0.666 C 
ATOM     93  NH1 ARG     1      66.162  42.095  42.979  1.00  0.00    -0.235 N 
ATOM     94  NH2 ARG     1      64.166  41.172  43.542  1.00  0.00    -0.235 N 
ATOM     95 2HH1 ARG     1      66.971  42.621  43.230  1.00 99.99     0.174 HD
ATOM     96 1HH1 ARG     1      66.040  41.767  42.044  1.00 99.99     0.174 HD
ATOM     97 2HH2 ARG     1      63.431  40.994  44.194  1.00 99.99     0.174 HD
ATOM     98 1HH2 ARG     1      64.075  40.863  42.597  1.00 99.99     0.174 HD
ENDBRANCH  89  90
ENDBRANCH  88  89
ENDBRANCH  87  88
ENDBRANCH   5  87
ENDBRANCH   1   5
TORSDOF 31
ENDMDL
MODEL 8
REMARK VINA RESULT:      -5.4      2.267      5.749
REMARK  31 active torsions:
REMARK  status: ('A' for Active; 'I' for Inactive)
REMARK    1  A    between atoms: N_1  and  CA_2 
REMARK    2  A    between atoms: CA_2  and  C_3 
REMARK    3  A    between atoms: CA_2  and  CB_5 
REMARK       I    between atoms: C_3  and  N_20 
REMARK    4  A    between atoms: CB_5  and  CG_6 
REMARK    5  A    between atoms: CG_6  and  CD_7 
REMARK    6  A    between atoms: CD_7  and  NE_8 
REMARK       I    between atoms: NE_8  and  CZ_9 
REMARK       I    between atoms: CZ_9  and  NH1_10 
REMARK       I    between atoms: CZ_9  and  NH2_11 
REMARK    7  A    between atoms: N_20  and  CA_21 
REMARK    8  A    between atoms: CA_21  and  CB_24 
REMARK    9  A    between atoms: CA_21  and  C_22 
REMARK       I    between atoms: C_22  and  N_37 
REMARK   10  A    between atoms: CB_24  and  CG_25 
REMARK   11  A    between atoms: CG_25  and  CD_26 
REMARK   12  A    between atoms: CD_26  and  NE_27 
REMARK       I    between atoms: NE_27  and  CZ_28 
REMARK       I    between atoms: CZ_28  and  NH2_30 
REMARK       I    between atoms: CZ_28  and  NH1_29 
REMARK   13  A    between atoms: N_37  and  CA_38 
REMARK   14  A    between atoms: CA_38  and  CB_41 
REMARK   15  A    between atoms: CA_38  and  C_39 
REMARK       I    between atoms: C_39  and  N_53 
REMARK   16  A    between atoms: CB_41  and  CG_42 
REMARK   17  A    between atoms: N_53  and  CA_54 
REMARK   18  A    between atoms: CA_54  and  C_55 
REMARK   19  A    between atoms: CA_54  and  CB_57 
REMARK       I    between atoms: C_55  and  N_65 
REMARK   20  A    between atoms: CB_57  and  CG_58 
REMARK   21  A    between atoms: CG_58  and  CD_59 
REMARK       I    between atoms: CD_59  and  NE2_61 
REMARK   22  A    between atoms: N_65  and  CA_66 
REMARK   23  A    between atoms: CA_66  and  C_67 
REMARK   24  A    between atoms: CA_66  and  CB_69 
REMARK       I    between atoms: C_67  and  N_81 
REMARK   25  A    between atoms: CB_69  and  CG_70 
REMARK   26  A    between atoms: N_81  and  CA_82 
REMARK   27  A    between atoms: CA_82  and  CB_85 
REMARK   28  A    between atoms: CA_82  and  C_83 
REMARK   29  A    between atoms: CB_85  and  CG_86 
REMARK   30  A    between atoms: CG_86  and  CD_87 
REMARK   31  A    between atoms: CD_87  and  NE_88 
REMARK       I    between atoms: NE_88  and  CZ_89 
REMARK       I    between atoms: CZ_89  and  NH1_90 
ROOT
ATOM      1  N   ARG     1      68.196  43.974  45.623  1.00  0.00    -0.058 N 
ATOM      2  H1  ARG     1      69.089  44.033  46.065  1.00 99.99     0.276 HD
ATOM      3  H2  ARG     1      68.300  43.987  44.639  1.00 99.99     0.276 HD
ATOM      4  H3  ARG     1      67.681  44.810  45.823  1.00 99.99     0.276 HD
ENDROOT
BRANCH   1   5
ATOM      5  CA  ARG     1      67.459  42.779  46.112  1.00  0.00     0.255 C 
BRANCH   5   6
ATOM      6  C   ARG     1      65.984  42.679  45.640  1.00  0.00     0.259 C 
ATOM      7  O   ARG     1      65.327  43.714  45.622  1.00  0.00    -0.271 OA
ATOM      8  N   ARG     2      65.413  41.478  45.441  1.00  0.00    -0.338 N 
ATOM      9  H   ARG     2      65.942  40.630  45.468  1.00 99.99     0.164 HD
BRANCH   8  10
ATOM     10  CA  ARG     2      64.016  41.309  44.956  1.00  0.00     0.159 C 
BRANCH  10  11
ATOM     11  CB  ARG     2      63.933  40.112  43.988  1.00  0.00     0.034 C 
BRANCH  11  12
ATOM     12  CG  ARG     2      63.511  40.435  42.543  1.00  0.00     0.027 C 
BRANCH  12  13
ATOM     13  CD  ARG     2      62.035  40.147  42.245  1.00  0.00     0.116 C 
BRANCH  13  14
ATOM     14  NE  ARG     2      61.403  41.349  41.666  1.00  0.00    -0.212 N 
ATOM     15  HE  ARG     2      61.221  42.086  42.312  1.00 99.99     0.178 HD
ATOM     16  CZ  ARG     2      61.072  41.540  40.384  1.00  0.00     0.666 C 
ATOM     17  NH2 ARG     2      60.445  42.649  40.011  1.00  0.00    -0.235 N 
ATOM     18  NH1 ARG     2      61.317  40.629  39.452  1.00  0.00    -0.235 N 
ATOM     19 1HH2 ARG     2      60.212  42.776  39.048  1.00 99.99     0.174 HD
ATOM     20 2HH2 ARG     2      60.209  43.352  40.677  1.00 99.99     0.174 HD
ATOM     21 2HH1 ARG     2      61.779  39.782  39.710  1.00 99.99     0.174 HD
ATOM     22 1HH1 ARG     2      61.071  40.797  38.499  1.00 99.99     0.174 HD
ENDBRANCH  13  14
ENDBRANCH  12  13
ENDBRANCH  11  12
ENDBRANCH  10  11
BRANCH  10  23
ATOM     23  C   ARG     2      62.925  41.235  46.050  1.00  0.00     0.251 C 
ATOM     24  O   ARG     2      61.850  40.701  45.791  1.00  0.00    -0.271 OA
ATOM     25  N   TRP     3      63.139  41.893  47.192  1.00  0.00    -0.337 N 
ATOM     26  H   TRP     3      64.043  42.232  47.440  1.00 99.99     0.164 HD
BRANCH  25  27
ATOM     27  CA  TRP     3      62.128  42.024  48.270  1.00  0.00     0.164 C 
BRANCH  27  28
ATOM     28  CB  TRP     3      62.884  42.111  49.604  1.00  0.00     0.059 C 
BRANCH  28  29
ATOM     29  CG  TRP     3      62.548  40.974  50.573  1.00  0.00    -0.016 A 
ATOM     30  CD2 TRP     3      61.444  40.141  50.503  1.00  0.00    -0.001 A 
ATOM     31  CE2 TRP     3      61.611  39.175  51.481  1.00  0.00     0.042 A 
ATOM     32  CE3 TRP     3      60.327  40.130  49.683  1.00  0.00     0.014 A 
ATOM     33  CZ2 TRP     3      60.656  38.174  51.628  1.00  0.00     0.030 A 
ATOM     34  NE1 TRP     3      62.753  39.444  52.109  1.00  0.00    -0.365 N 
ATOM     35  CH2 TRP     3      59.544  38.147  50.793  1.00  0.00     0.002 A 
ATOM     36  CZ3 TRP     3      59.373  39.133  49.827  1.00  0.00     0.001 A 
ATOM     37  HE1 TRP     3      63.140  38.917  52.866  1.00 99.99     0.165 HD
ATOM     38  CD1 TRP     3      63.312  40.529  51.566  1.00  0.00     0.097 A 
ENDBRANCH  28  29
ENDBRANCH  27  28
BRANCH  27  39
ATOM     39  C   TRP     3      61.163  43.220  48.085  1.00  0.00     0.251 C 
ATOM     40  O   TRP     3      61.379  44.287  48.650  1.00  0.00    -0.271 OA
ATOM     41  N   GLN     4      60.018  42.967  47.450  1.00  0.00    -0.338 N 
ATOM     42  H   GLN     4      59.780  42.038  47.159  1.00 99.99     0.164 HD
BRANCH  41  43
ATOM     43  CA  GLN     4      58.927  43.941  47.209  1.00  0.00     0.160 C 
BRANCH  43  44
ATOM     44  C   GLN     4      57.621  43.651  47.984  1.00  0.00     0.251 C 
ATOM     45  N   TRP     5      57.723  42.807  49.012  1.00  0.00    -0.337 N 
ATOM     46  H   TRP     5      58.593  42.368  49.239  1.00 99.99     0.164 HD
ATOM     47  O   GLN     4      56.541  44.047  47.547  1.00  0.00    -0.271 OA
BRANCH  45  48
ATOM     48  CA  TRP     5      56.608  42.391  49.890  1.00  0.00     0.164 C 
BRANCH  48  49
ATOM     49  C   TRP     5      56.979  42.423  51.392  1.00  0.00     0.251 C 
ATOM     50  O   TRP     5      56.167  42.791  52.240  1.00  0.00    -0.271 OA
ATOM     51  N   ARG     6      58.224  42.062  51.704  1.00  0.00    -0.336 N 
ATOM     52  H   ARG     6      58.879  41.811  50.991  1.00 99.99     0.164 HD
BRANCH  51  53
ATOM     53  CA  ARG     6      58.752  41.951  53.087  1.00  0.00     0.168 C 
BRANCH  53  54
ATOM     54  CB  ARG     6      58.511  40.526  53.622  1.00  0.00     0.035 C 
BRANCH  54  55
ATOM     55  CG  ARG     6      57.719  40.521  54.939  1.00  0.00     0.027 C 
BRANCH  55  56
ATOM     56  CD  ARG     6      56.219  40.233  54.768  1.00  0.00     0.116 C 
BRANCH  56  57
ATOM     57  NE  ARG     6      55.898  39.141  53.823  1.00  0.00    -0.212 N 
ATOM     58  HE  ARG     6      56.219  38.239  54.106  1.00 99.99     0.178 HD
ATOM     59  CZ  ARG     6      55.129  39.191  52.729  1.00  0.00     0.666 C 
ATOM     60  NH2 ARG     6      55.362  38.335  51.744  1.00  0.00    -0.235 N 
ATOM     61  NH1 ARG     6      54.323  40.210  52.459  1.00  0.00    -0.235 N 
ATOM     62 1HH2 ARG     6      54.808  38.374  50.914  1.00 99.99     0.174 HD
ATOM     63 2HH2 ARG     6      56.090  37.659  51.832  1.00 99.99     0.174 HD
ATOM     64 2HH1 ARG     6      54.222  40.946  53.124  1.00 99.99     0.174 HD
ATOM     65 1HH1 ARG     6      53.771  40.205  51.628  1.00 99.99     0.174 HD
ENDBRANCH  56  57
ENDBRANCH  55  56
ENDBRANCH  54  55
ENDBRANCH  53  54
BRANCH  53  66
ATOM     66  C   ARG     6      60.260  42.259  53.112  1.00  0.00     0.206 C 
ATOM     67  OXT ARG     6      60.622  43.210  52.392  1.00 99.99    -0.646 OA
ATOM     68  O   ARG     6      60.981  41.600  53.893  1.00 99.99    -0.646 OA
ENDBRANCH  53  66
ENDBRANCH  51  53
ENDBRANCH  48  49
BRANCH  48  69
ATOM     69  CB  TRP     5      56.216  40.949  49.539  1.00  0.00     0.059 C 
BRANCH  69  70
ATOM     70  CG  TRP     5      55.306  40.687  48.335  1.00  0.00    -0.016 A 
ATOM     71  CD2 TRP     5      55.814  40.359  47.090  1.00  0.00    -0.001 A 
ATOM     72  CE3 TRP     5      57.103  40.402  46.578  1.00  0.00     0.014 A 
ATOM     73  CE2 TRP     5      54.782  39.789  46.367  1.00  0.00     0.042 A 
ATOM     74  CZ3 TRP     5      57.364  39.865  45.325  1.00  0.00     0.001 A 
ATOM     75  CH2 TRP     5      56.331  39.302  44.585  1.00  0.00     0.002 A 
ATOM     76  CZ2 TRP     5      55.040  39.262  45.105  1.00  0.00     0.030 A 
ATOM     77  NE1 TRP     5      53.705  39.796  47.150  1.00  0.00    -0.365 N 
ATOM     78  HE1 TRP     5      52.816  39.399  46.920  1.00 99.99     0.165 HD
ATOM     79  CD1 TRP     5      54.017  40.348  48.324  1.00  0.00     0.097 A 
ENDBRANCH  69  70
ENDBRANCH  48  69
ENDBRANCH  45  48
ENDBRANCH  43  44
BRANCH  43  80
ATOM     80  CB  GLN     4      58.591  43.933  45.715  1.00  0.00     0.042 C 
BRANCH  80  81
ATOM     81  CG  GLN     4      59.393  42.912  44.909  1.00  0.00     0.090 C 
BRANCH  81  82
ATOM     82  CD  GLN     4      59.161  43.095  43.408  1.00  0.00     0.227 C 
ATOM     83  OE1 GLN     4      59.759  43.923  42.735  1.00  0.00    -0.273 OA
ATOM     84  NE2 GLN     4      58.154  42.422  42.905  1.00  0.00    -0.369 N 
ATOM     85 1HE2 GLN     4      57.990  42.524  41.928  1.00 99.99     0.159 HD
ATOM     86 2HE2 GLN     4      57.603  41.830  43.485  1.00 99.99     0.159 HD
ENDBRANCH  81  82
ENDBRANCH  80  81
ENDBRANCH  43  80
ENDBRANCH  41  43
ENDBRANCH  27  39
ENDBRANCH  25  27
ENDBRANCH  10  23
ENDBRANCH   8  10
ENDBRANCH   5   6
BRANCH   5  87
ATOM     87  CB  ARG     1      67.571  42.591  47.636  1.00  0.00     0.042 C 
BRANCH  87  88
ATOM     88  CG  ARG     1      66.475  43.311  48.443  1.00  0.00     0.027 C 
BRANCH  88  89
ATOM     89  CD  ARG     1      66.589  44.842  48.427  1.00  0.00     0.116 C 
BRANCH  89  90
ATOM     90  NE  ARG     1      65.280  45.518  48.291  1.00  0.00    -0.212 N 
ATOM     91  HE  ARG     1      64.904  45.552  47.368  1.00 99.99     0.178 HD
ATOM     92  CZ  ARG     1      64.615  46.143  49.273  1.00  0.00     0.666 C 
ATOM     93  NH1 ARG     1      65.105  46.239  50.504  1.00  0.00    -0.235 N 
ATOM     94  NH2 ARG     1      63.412  46.656  49.049  1.00  0.00    -0.235 N 
ATOM     95 2HH1 ARG     1      65.997  45.839  50.697  1.00 99.99     0.174 HD
ATOM     96 1HH1 ARG     1      64.587  46.697  51.224  1.00 99.99     0.174 HD
ATOM     97 2HH2 ARG     1      62.982  46.575  48.152  1.00 99.99     0.174 HD
ATOM     98 1HH2 ARG     1      62.921  47.103  49.795  1.00 99.99     0.174 HD
ENDBRANCH  89  90
ENDBRANCH  88  89
ENDBRANCH  87  88
ENDBRANCH   5  87
ENDBRANCH   1   5
TORSDOF 31
ENDMDL
MODEL 9
REMARK VINA RESULT:      -5.3      2.591      6.544
REMARK  31 active torsions:
REMARK  status: ('A' for Active; 'I' for Inactive)
REMARK    1  A    between atoms: N_1  and  CA_2 
REMARK    2  A    between atoms: CA_2  and  C_3 
REMARK    3  A    between atoms: CA_2  and  CB_5 
REMARK       I    between atoms: C_3  and  N_20 
REMARK    4  A    between atoms: CB_5  and  CG_6 
REMARK    5  A    between atoms: CG_6  and  CD_7 
REMARK    6  A    between atoms: CD_7  and  NE_8 
REMARK       I    between atoms: NE_8  and  CZ_9 
REMARK       I    between atoms: CZ_9  and  NH1_10 
REMARK       I    between atoms: CZ_9  and  NH2_11 
REMARK    7  A    between atoms: N_20  and  CA_21 
REMARK    8  A    between atoms: CA_21  and  CB_24 
REMARK    9  A    between atoms: CA_21  and  C_22 
REMARK       I    between atoms: C_22  and  N_37 
REMARK   10  A    between atoms: CB_24  and  CG_25 
REMARK   11  A    between atoms: CG_25  and  CD_26 
REMARK   12  A    between atoms: CD_26  and  NE_27 
REMARK       I    between atoms: NE_27  and  CZ_28 
REMARK       I    between atoms: CZ_28  and  NH2_30 
REMARK       I    between atoms: CZ_28  and  NH1_29 
REMARK   13  A    between atoms: N_37  and  CA_38 
REMARK   14  A    between atoms: CA_38  and  CB_41 
REMARK   15  A    between atoms: CA_38  and  C_39 
REMARK       I    between atoms: C_39  and  N_53 
REMARK   16  A    between atoms: CB_41  and  CG_42 
REMARK   17  A    between atoms: N_53  and  CA_54 
REMARK   18  A    between atoms: CA_54  and  C_55 
REMARK   19  A    between atoms: CA_54  and  CB_57 
REMARK       I    between atoms: C_55  and  N_65 
REMARK   20  A    between atoms: CB_57  and  CG_58 
REMARK   21  A    between atoms: CG_58  and  CD_59 
REMARK       I    between atoms: CD_59  and  NE2_61 
REMARK   22  A    between atoms: N_65  and  CA_66 
REMARK   23  A    between atoms: CA_66  and  C_67 
REMARK   24  A    between atoms: CA_66  and  CB_69 
REMARK       I    between atoms: C_67  and  N_81 
REMARK   25  A    between atoms: CB_69  and  CG_70 
REMARK   26  A    between atoms: N_81  and  CA_82 
REMARK   27  A    between atoms: CA_82  and  CB_85 
REMARK   28  A    between atoms: CA_82  and  C_83 
REMARK   29  A    between atoms: CB_85  and  CG_86 
REMARK   30  A    between atoms: CG_86  and  CD_87 
REMARK   31  A    between atoms: CD_87  and  NE_88 
REMARK       I    between atoms: NE_88  and  CZ_89 
REMARK       I    between atoms: CZ_89  and  NH1_90 
ROOT
ATOM      1  N   ARG     1      67.861  43.897  45.555  1.00  0.00    -0.058 N 
ATOM      2  H1  ARG     1      68.775  43.936  45.956  1.00 99.99     0.276 HD
ATOM      3  H2  ARG     1      67.911  44.032  44.577  1.00 99.99     0.276 HD
ATOM      4  H3  ARG     1      67.332  44.682  45.882  1.00 99.99     0.276 HD
ENDROOT
BRANCH   1   5
ATOM      5  CA  ARG     1      67.190  42.624  45.931  1.00  0.00     0.255 C 
BRANCH   5   6
ATOM      6  C   ARG     1      65.669  42.571  45.632  1.00  0.00     0.259 C 
ATOM      7  O   ARG     1      65.063  43.637  45.603  1.00  0.00    -0.271 OA
ATOM      8  N   ARG     2      65.024  41.392  45.591  1.00  0.00    -0.338 N 
ATOM      9  H   ARG     2      65.512  40.520  45.627  1.00 99.99     0.164 HD
BRANCH   8  10
ATOM     10  CA  ARG     2      63.575  41.265  45.275  1.00  0.00     0.159 C 
BRANCH  10  11
ATOM     11  CB  ARG     2      63.316  39.961  44.495  1.00  0.00     0.034 C 
BRANCH  11  12
ATOM     12  CG  ARG     2      62.640  40.115  43.120  1.00  0.00     0.027 C 
BRANCH  12  13
ATOM     13  CD  ARG     2      62.806  41.505  42.495  1.00  0.00     0.116 C 
BRANCH  13  14
ATOM     14  NE  ARG     2      63.065  41.371  41.049  1.00  0.00    -0.212 N 
ATOM     15  HE  ARG     2      64.017  41.214  40.800  1.00 99.99     0.178 HD
ATOM     16  CZ  ARG     2      62.159  41.428  40.065  1.00  0.00     0.666 C 
ATOM     17  NH2 ARG     2      62.542  41.357  38.796  1.00  0.00    -0.235 N 
ATOM     18  NH1 ARG     2      60.866  41.592  40.309  1.00  0.00    -0.235 N 
ATOM     19 1HH2 ARG     2      61.850  41.395  38.077  1.00 99.99     0.174 HD
ATOM     20 2HH2 ARG     2      63.505  41.265  38.556  1.00 99.99     0.174 HD
ATOM     21 2HH1 ARG     2      60.555  41.657  41.256  1.00 99.99     0.174 HD
ATOM     22 1HH1 ARG     2      60.206  41.621  39.561  1.00 99.99     0.174 HD
ENDBRANCH  13  14
ENDBRANCH  12  13
ENDBRANCH  11  12
ENDBRANCH  10  11
BRANCH  10  23
ATOM     23  C   ARG     2      62.606  41.416  46.471  1.00  0.00     0.251 C 
ATOM     24  O   ARG     2      61.536  40.815  46.457  1.00  0.00    -0.271 OA
ATOM     25  N   TRP     3      62.906  42.319  47.409  1.00  0.00    -0.337 N 
ATOM     26  H   TRP     3      63.814  42.724  47.474  1.00 99.99     0.164 HD
BRANCH  25  27
ATOM     27  CA  TRP     3      62.007  42.668  48.535  1.00  0.00     0.164 C 
BRANCH  27  28
ATOM     28  CB  TRP     3      62.876  43.257  49.655  1.00  0.00     0.059 C 
BRANCH  28  29
ATOM     29  CG  TRP     3      62.649  42.598  51.018  1.00  0.00    -0.016 A 
ATOM     30  CD2 TRP     3      63.036  41.318  51.381  1.00  0.00    -0.001 A 
ATOM     31  CE2 TRP     3      62.765  41.188  52.733  1.00  0.00     0.042 A 
ATOM     32  CE3 TRP     3      63.598  40.270  50.669  1.00  0.00     0.014 A 
ATOM     33  CZ2 TRP     3      63.079  39.999  53.385  1.00  0.00     0.030 A 
ATOM     34  NE1 TRP     3      62.225  42.335  53.138  1.00  0.00    -0.365 N 
ATOM     35  CH2 TRP     3      63.663  38.953  52.679  1.00  0.00     0.002 A 
ATOM     36  CZ3 TRP     3      63.912  39.084  51.316  1.00  0.00     0.001 A 
ATOM     37  HE1 TRP     3      61.925  42.539  54.070  1.00 99.99     0.165 HD
ATOM     38  CD1 TRP     3      62.150  43.179  52.106  1.00  0.00     0.097 A 
ENDBRANCH  28  29
ENDBRANCH  27  28
BRANCH  27  39
ATOM     39  C   TRP     3      60.854  43.626  48.146  1.00  0.00     0.251 C 
ATOM     40  O   TRP     3      60.770  44.738  48.659  1.00  0.00    -0.271 OA
ATOM     41  N   GLN     4      59.883  43.111  47.391  1.00  0.00    -0.338 N 
ATOM     42  H   GLN     4      59.880  42.142  47.138  1.00 99.99     0.164 HD
BRANCH  41  43
ATOM     43  CA  GLN     4      58.662  43.825  46.947  1.00  0.00     0.160 C 
BRANCH  43  44
ATOM     44  C   GLN     4      57.361  43.375  47.652  1.00  0.00     0.251 C 
ATOM     45  N   TRP     5      57.282  42.083  47.969  1.00  0.00    -0.337 N 
ATOM     46  H   TRP     5      58.013  41.444  47.730  1.00 99.99     0.164 HD
ATOM     47  O   GLN     4      56.407  44.147  47.740  1.00  0.00    -0.271 OA
BRANCH  45  48
ATOM     48  CA  TRP     5      56.137  41.438  48.647  1.00  0.00     0.164 C 
BRANCH  48  49
ATOM     49  C   TRP     5      56.447  41.042  50.111  1.00  0.00     0.251 C 
ATOM     50  O   TRP     5      55.581  40.553  50.835  1.00  0.00    -0.271 OA
ATOM     51  N   ARG     6      57.686  41.285  50.542  1.00  0.00    -0.336 N 
ATOM     52  H   ARG     6      58.358  41.726  49.946  1.00 99.99     0.164 HD
BRANCH  51  53
ATOM     53  CA  ARG     6      58.205  40.910  51.881  1.00  0.00     0.168 C 
BRANCH  53  54
ATOM     54  CB  ARG     6      59.563  40.198  51.731  1.00  0.00     0.035 C 
BRANCH  54  55
ATOM     55  CG  ARG     6      59.512  38.735  52.196  1.00  0.00     0.027 C 
BRANCH  55  56
ATOM     56  CD  ARG     6      59.947  37.721  51.127  1.00  0.00     0.116 C 
BRANCH  56  57
ATOM     57  NE  ARG     6      60.620  38.308  49.948  1.00  0.00    -0.212 N 
ATOM     58  HE  ARG     6      60.502  39.295  49.852  1.00 99.99     0.178 HD
ATOM     59  CZ  ARG     6      61.459  37.716  49.091  1.00  0.00     0.666 C 
ATOM     60  NH2 ARG     6      61.543  38.182  47.852  1.00  0.00    -0.235 N 
ATOM     61  NH1 ARG     6      62.014  36.533  49.325  1.00  0.00    -0.235 N 
ATOM     62 1HH2 ARG     6      62.151  37.737  47.197  1.00 99.99     0.174 HD
ATOM     63 2HH2 ARG     6      60.997  38.970  47.578  1.00 99.99     0.174 HD
ATOM     64 2HH1 ARG     6      61.864  36.086  50.204  1.00 99.99     0.174 HD
ATOM     65 1HH1 ARG     6      62.631  36.129  48.653  1.00 99.99     0.174 HD
ENDBRANCH  56  57
ENDBRANCH  55  56
ENDBRANCH  54  55
ENDBRANCH  53  54
BRANCH  53  66
ATOM     66  C   ARG     6      58.378  42.163  52.758  1.00  0.00     0.206 C 
ATOM     67  OXT ARG     6      59.250  42.078  53.645  1.00 99.99    -0.646 OA
ATOM     68  O   ARG     6      57.702  43.177  52.475  1.00 99.99    -0.646 OA
ENDBRANCH  53  66
ENDBRANCH  51  53
ENDBRANCH  48  49
BRANCH  48  69
ATOM     69  CB  TRP     5      55.770  40.156  47.886  1.00  0.00     0.059 C 
BRANCH  69  70
ATOM     70  CG  TRP     5      55.838  40.141  46.357  1.00  0.00    -0.016 A 
ATOM     71  CD2 TRP     5      56.934  39.641  45.676  1.00  0.00    -0.001 A 
ATOM     72  CE3 TRP     5      58.204  39.282  46.106  1.00  0.00     0.014 A 
ATOM     73  CE2 TRP     5      56.526  39.383  44.379  1.00  0.00     0.042 A 
ATOM     74  CZ3 TRP     5      59.076  38.654  45.228  1.00  0.00     0.001 A 
ATOM     75  CH2 TRP     5      58.680  38.403  43.920  1.00  0.00     0.002 A 
ATOM     76  CZ2 TRP     5      57.405  38.766  43.495  1.00  0.00     0.030 A 
ATOM     77  NE1 TRP     5      55.244  39.734  44.297  1.00  0.00    -0.365 N 
ATOM     78  HE1 TRP     5      54.659  39.614  43.494  1.00 99.99     0.165 HD
ATOM     79  CD1 TRP     5      54.837  40.203  45.479  1.00  0.00     0.097 A 
ENDBRANCH  69  70
ENDBRANCH  48  69
ENDBRANCH  45  48
ENDBRANCH  43  44
BRANCH  43  80
ATOM     80  CB  GLN     4      58.481  43.587  45.445  1.00  0.00     0.042 C 
BRANCH  80  81
ATOM     81  CG  GLN     4      59.761  43.778  44.632  1.00  0.00     0.090 C 
BRANCH  81  82
ATOM     82  CD  GLN     4      59.565  43.321  43.186  1.00  0.00     0.227 C 
ATOM     83  OE1 GLN     4      60.229  43.751  42.253  1.00  0.00    -0.273 OA
ATOM     84  NE2 GLN     4      58.522  42.556  42.972  1.00  0.00    -0.369 N 
ATOM     85 1HE2 GLN     4      58.379  42.243  42.037  1.00 99.99     0.159 HD
ATOM     86 2HE2 GLN     4      57.922  42.298  43.723  1.00 99.99     0.159 HD
ENDBRANCH  81  82
ENDBRANCH  80  81
ENDBRANCH  43  80
ENDBRANCH  41  43
ENDBRANCH  27  39
ENDBRANCH  25  27
ENDBRANCH  10  23
ENDBRANCH   8  10
ENDBRANCH   5   6
BRANCH   5  87
ATOM     87  CB  ARG     1      67.489  42.197  47.380  1.00  0.00     0.042 C 
BRANCH  87  88
ATOM     88  CG  ARG     1      66.481  42.732  48.415  1.00  0.00     0.027 C 
BRANCH  88  89
ATOM     89  CD  ARG     1      66.770  44.163  48.889  1.00  0.00     0.116 C 
BRANCH  89  90
ATOM     90  NE  ARG     1      65.640  45.089  48.652  1.00  0.00    -0.212 N 
ATOM     91  HE  ARG     1      65.038  44.852  47.892  1.00 99.99     0.178 HD
ATOM     92  CZ  ARG     1      65.413  46.234  49.309  1.00  0.00     0.666 C 
ATOM     93  NH1 ARG     1      66.233  46.675  50.257  1.00  0.00    -0.235 N 
ATOM     94  NH2 ARG     1      64.326  46.951  49.057  1.00  0.00    -0.235 N 
ATOM     95 2HH1 ARG     1      67.043  46.137  50.477  1.00 99.99     0.174 HD
ATOM     96 1HH1 ARG     1      66.040  47.524  50.744  1.00 99.99     0.174 HD
ATOM     97 2HH2 ARG     1      63.658  46.643  48.382  1.00 99.99     0.174 HD
ATOM     98 1HH2 ARG     1      64.162  47.794  49.567  1.00 99.99     0.174 HD
ENDBRANCH  89  90
ENDBRANCH  88  89
ENDBRANCH  87  88
ENDBRANCH   5  87
ENDBRANCH   1   5
TORSDOF 31
ENDMDL
