MODEL 1
REMARK VINA RESULT:      -4.4      0.000      0.000
REMARK WARNING: 32 MAX_TORS EXCEEDED!!!
REMARK  38 active torsions:
REMARK  status: ('A' for Active; 'I' for Inactive)
REMARK    1  A    between atoms: N_1  and  CA_2 
REMARK    2  A    between atoms: CA_2  and  C_3 
REMARK       I    between atoms: C_3  and  N_8 
REMARK    3  A    between atoms: N_8  and  CA_9 
REMARK    4  A    between atoms: CA_9  and  C_10 
REMARK    5  A    between atoms: CA_9  and  CB_12 
REMARK       I    between atoms: C_10  and  N_17 
REMARK    6  A    between atoms: CB_12  and  CG_13 
REMARK    7  A    between atoms: N_17  and  CA_18 
REMARK    8  A    between atoms: CA_18  and  C_19 
REMARK    9  A    between atoms: CA_18  and  CB_21 
REMARK       I    between atoms: C_19  and  N_26 
REMARK   10  A    between atoms: CB_21  and  CG_22 
REMARK   11  A    between atoms: N_26  and  CA_27 
REMARK   12  A    between atoms: CA_27  and  C_28 
REMARK   13  A    between atoms: CA_27  and  CB_30 
REMARK       I    between atoms: C_28  and  N_39 
REMARK   14  A    between atoms: CB_30  and  CG_31 
REMARK   15  A    between atoms: CG_31  and  CD_32 
REMARK   16  A    between atoms: CD_32  and  CE_33 
REMARK   17  A    between atoms: CE_33  and  NZ_34 
REMARK   18  A    between atoms: N_39  and  CA_40 
REMARK   19  A    between atoms: CA_40  and  CB_43 
REMARK   20  A    between atoms: CA_40  and  C_41 
REMARK       I    between atoms: C_41  and  N_56 
REMARK   21  A    between atoms: CB_43  and  CG_44 
REMARK   22  A    between atoms: CG_44  and  CD_45 
REMARK   23  A    between atoms: CD_45  and  NE_46 
REMARK       I    between atoms: NE_46  and  CZ_47 
REMARK       I    between atoms: CZ_47  and  NH1_48 
REMARK   24  A    between atoms: N_56  and  CA_57 
REMARK   25  A    between atoms: CA_57  and  C_58 
REMARK   26  A    between atoms: CA_57  and  CB_60 
REMARK       I    between atoms: C_58  and  N_65 
REMARK   27  A    between atoms: CB_60  and  CG1_61 
REMARK   28  A    between atoms: N_65  and  CA_66 
REMARK   29  A    between atoms: CA_66  and  C_67 
REMARK   30  A    between atoms: CA_66  and  CB_69 
REMARK       I    between atoms: C_67  and  N_78 
REMARK   31  A    between atoms: CB_69  and  CG_70 
REMARK   32  A    between atoms: CG_70  and  CD_71 
REMARK   33  A    between atoms: CD_71  and  CE_72 
REMARK   34  A    between atoms: CE_72  and  NZ_73 
REMARK   35  A    between atoms: N_78  and  CA_79 
REMARK   36  A    between atoms: CA_79  and  CB_82 
REMARK   37  A    between atoms: CA_79  and  C_80 
REMARK   38  A    between atoms: CB_82  and  OG1_83 
ROOT
ATOM      1  N   GLY     1      59.688  41.859  52.952  1.00  0.00    -0.055 N 
ATOM      2  H1  GLY     1      59.065  41.092  52.788  1.00 99.99     0.276 HD
ATOM      3  H2  GLY     1      59.829  41.985  53.922  1.00 99.99     0.276 HD
ATOM      4  H3  GLY     1      59.255  42.695  52.644  1.00 99.99     0.276 HD
ENDROOT
BRANCH   1   5
ATOM      5  CA  GLY     1      60.957  41.605  52.244  1.00  0.00     0.292 C 
BRANCH   5   6
ATOM      6  C   GLY     1      61.546  42.899  51.641  1.00  0.00     0.261 C 
ATOM      7  O   GLY     1      61.513  43.945  52.294  1.00  0.00    -0.270 OA
ATOM      8  N   LEU     2      61.706  42.867  50.316  1.00  0.00    -0.337 N 
ATOM      9  H   LEU     2      61.433  42.065  49.787  1.00 99.99     0.164 HD
BRANCH   8  10
ATOM     10  CA  LEU     2      62.347  43.920  49.497  1.00  0.00     0.159 C 
BRANCH  10  11
ATOM     11  C   LEU     2      62.476  43.619  47.988  1.00  0.00     0.251 C 
ATOM     12  N   LEU     3      63.679  43.237  47.550  1.00  0.00    -0.338 N 
ATOM     13  H   LEU     3      64.484  43.331  48.130  1.00 99.99     0.164 HD
ATOM     14  O   LEU     2      61.459  43.574  47.301  1.00  0.00    -0.271 OA
BRANCH  12  15
ATOM     15  CA  LEU     3      63.997  42.837  46.158  1.00  0.00     0.159 C 
BRANCH  15  16
ATOM     16  C   LEU     3      63.218  41.659  45.541  1.00  0.00     0.251 C 
ATOM     17  N   LYS     4      62.505  40.872  46.352  1.00  0.00    -0.338 N 
ATOM     18  H   LYS     4      62.517  40.968  47.349  1.00 99.99     0.164 HD
ATOM     19  O   LEU     3      63.239  41.509  44.322  1.00  0.00    -0.271 OA
BRANCH  17  20
ATOM     20  CA  LYS     4      61.653  39.787  45.811  1.00  0.00     0.159 C 
BRANCH  20  21
ATOM     21  C   LYS     4      60.269  40.306  45.361  1.00  0.00     0.251 C 
ATOM     22  N   ARG     5      59.766  39.786  44.241  1.00  0.00    -0.338 N 
ATOM     23  H   ARG     5      60.190  38.989  43.807  1.00 99.99     0.164 HD
ATOM     24  O   LYS     4      59.571  40.905  46.173  1.00  0.00    -0.271 OA
BRANCH  22  25
ATOM     25  CA  ARG     5      58.484  40.190  43.615  1.00  0.00     0.159 C 
BRANCH  25  26
ATOM     26  CB  ARG     5      58.641  40.241  42.091  1.00  0.00     0.034 C 
BRANCH  26  27
ATOM     27  CG  ARG     5      58.331  41.604  41.471  1.00  0.00     0.027 C 
BRANCH  27  28
ATOM     28  CD  ARG     5      59.256  42.687  42.039  1.00  0.00     0.116 C 
BRANCH  28  29
ATOM     29  NE  ARG     5      58.754  43.211  43.325  1.00  0.00    -0.212 N 
ATOM     30  HE  ARG     5      57.759  43.231  43.410  1.00 99.99     0.178 HD
ATOM     31  CZ  ARG     5      59.499  43.605  44.359  1.00  0.00     0.666 C 
ATOM     32  NH1 ARG     5      60.825  43.574  44.306  1.00  0.00    -0.235 N 
ATOM     33  NH2 ARG     5      58.927  44.046  45.470  1.00  0.00    -0.235 N 
ATOM     34 2HH1 ARG     5      61.257  43.238  43.472  1.00 99.99     0.174 HD
ATOM     35 1HH1 ARG     5      61.375  43.859  45.087  1.00 99.99     0.174 HD
ATOM     36 2HH2 ARG     5      57.933  44.075  45.551  1.00 99.99     0.174 HD
ATOM     37 1HH2 ARG     5      59.501  44.325  46.237  1.00 99.99     0.174 HD
ENDBRANCH  28  29
ENDBRANCH  27  28
ENDBRANCH  26  27
ENDBRANCH  25  26
BRANCH  25  38
ATOM     38  C   ARG     5      57.246  39.320  43.942  1.00  0.00     0.251 C 
ATOM     39  N   ILE     6      56.954  39.203  45.235  1.00  0.00    -0.338 N 
ATOM     40  H   ILE     6      57.642  39.413  45.925  1.00 99.99     0.164 HD
ATOM     41  O   ARG     5      56.755  38.587  43.085  1.00  0.00    -0.271 OA
BRANCH  39  42
ATOM     42  CA  ILE     6      55.723  38.569  45.765  1.00  0.00     0.159 C 
BRANCH  42  43
ATOM     43  C   ILE     6      54.802  39.628  46.425  1.00  0.00     0.251 C 
ATOM     44  N   LYS     7      54.560  39.476  47.728  1.00  0.00    -0.338 N 
ATOM     45  H   LYS     7      54.923  38.695  48.232  1.00 99.99     0.164 HD
ATOM     46  O   ILE     6      54.293  40.526  45.755  1.00  0.00    -0.271 OA
BRANCH  44  47
ATOM     47  CA  LYS     7      53.736  40.389  48.553  1.00  0.00     0.159 C 
BRANCH  47  48
ATOM     48  C   LYS     7      54.516  41.559  49.185  1.00  0.00     0.251 C 
ATOM     49  O   LYS     7      53.963  42.307  49.987  1.00  0.00    -0.271 OA
ATOM     50  N   THR     8      55.840  41.490  49.065  1.00  0.00    -0.335 N 
ATOM     51  H   THR     8      56.292  40.606  48.907  1.00 99.99     0.164 HD
BRANCH  50  52
ATOM     52  CA  THR     8      56.766  42.629  49.258  1.00  0.00     0.195 C 
BRANCH  52  53
ATOM     53  CB  THR     8      58.207  42.143  49.513  1.00  0.00     0.141 C 
ATOM     54  CG2 THR     8      58.322  40.614  49.541  1.00  0.00     0.034 C 
BRANCH  53  55
ATOM     55  OG1 THR     8      59.098  42.661  48.523  1.00  0.00    -0.382 OA
ATOM     56  HG1 THR     8      58.601  42.793  47.664  1.00 99.99     0.210 HD
ENDBRANCH  53  55
ENDBRANCH  52  53
BRANCH  52  57
ATOM     57  C   THR     8      56.776  43.421  47.939  1.00  0.00     0.209 C 
ATOM     58  OXT THR     8      56.735  42.728  46.899  1.00 99.99    -0.646 OA
ATOM     59  O   THR     8      56.866  44.666  47.997  1.00 99.99    -0.646 OA
ENDBRANCH  52  57
ENDBRANCH  50  52
ENDBRANCH  47  48
BRANCH  47  60
ATOM     60  CB  LYS     7      53.048  39.601  49.667  1.00  0.00     0.032 C 
BRANCH  60  61
ATOM     61  CG  LYS     7      53.799  38.325  50.048  1.00  0.00     0.004 C 
BRANCH  61  62
ATOM     62  CD  LYS     7      54.080  38.364  51.547  1.00  0.00     0.032 C 
BRANCH  62  63
ATOM     63  CE  LYS     7      55.231  39.309  51.883  1.00  0.00     0.206 C 
BRANCH  63  64
ATOM     64  NZ  LYS     7      54.708  40.496  52.570  1.00  0.00    -0.064 N 
ATOM     65  HZ1 LYS     7      53.900  40.246  53.103  1.00 99.99     0.275 HD
ATOM     66  HZ2 LYS     7      55.412  40.871  53.173  1.00 99.99     0.275 HD
ATOM     67  HZ3 LYS     7      54.457  41.183  51.887  1.00 99.99     0.275 HD
ENDBRANCH  63  64
ENDBRANCH  62  63
ENDBRANCH  61  62
ENDBRANCH  60  61
ENDBRANCH  47  60
ENDBRANCH  44  47
ENDBRANCH  42  43
BRANCH  42  68
ATOM     68  CB  ILE     6      56.099  37.426  46.744  1.00  0.00     0.029 C 
ATOM     69  CG2 ILE     6      55.332  36.132  46.416  1.00  0.00     0.002 C 
BRANCH  68  70
ATOM     70  CG1 ILE     6      57.616  37.154  46.725  1.00  0.00     0.002 C 
ATOM     71  CD  ILE     6      58.036  35.929  45.900  1.00  0.00     0.000 C 
ENDBRANCH  68  70
ENDBRANCH  42  68
ENDBRANCH  39  42
ENDBRANCH  25  38
ENDBRANCH  22  25
ENDBRANCH  20  21
BRANCH  20  72
ATOM     72  CB  LYS     4      61.538  38.599  46.781  1.00  0.00     0.032 C 
BRANCH  72  73
ATOM     73  CG  LYS     4      62.918  38.226  47.342  1.00  0.00     0.004 C 
BRANCH  73  74
ATOM     74  CD  LYS     4      63.105  38.545  48.830  1.00  0.00     0.032 C 
BRANCH  74  75
ATOM     75  CE  LYS     4      61.777  39.030  49.423  1.00  0.00     0.206 C 
BRANCH  75  76
ATOM     76  NZ  LYS     4      61.193  38.083  50.388  1.00  0.00    -0.064 N 
ATOM     77  HZ3 LYS     4      60.440  37.580  49.964  1.00 99.99     0.275 HD
ATOM     78  HZ2 LYS     4      60.856  38.580  51.188  1.00 99.99     0.275 HD
ATOM     79  HZ1 LYS     4      61.896  37.435  50.681  1.00 99.99     0.275 HD
ENDBRANCH  75  76
ENDBRANCH  74  75
ENDBRANCH  73  74
ENDBRANCH  72  73
ENDBRANCH  20  72
ENDBRANCH  17  20
ENDBRANCH  15  16
BRANCH  15  80
ATOM     80  CB  LEU     3      65.500  42.556  46.030  1.00  0.00     0.032 C 
BRANCH  80  81
ATOM     81  CG  LEU     3      66.071  41.710  47.175  1.00  0.00     0.002 C 
ATOM     82  CD1 LEU     3      66.595  40.386  46.616  1.00  0.00     0.000 C 
ATOM     83  CD2 LEU     3      67.204  42.442  47.904  1.00  0.00     0.000 C 
ENDBRANCH  80  81
ENDBRANCH  15  80
ENDBRANCH  12  15
ENDBRANCH  10  11
BRANCH  10  84
ATOM     84  CB  LEU     2      63.704  44.233  50.146  1.00  0.00     0.032 C 
BRANCH  84  85
ATOM     85  CG  LEU     2      64.065  45.721  50.235  1.00  0.00     0.002 C 
ATOM     86  CD1 LEU     2      65.321  46.056  49.423  1.00  0.00     0.000 C 
ATOM     87  CD2 LEU     2      62.882  46.560  49.749  1.00  0.00     0.000 C 
ENDBRANCH  84  85
ENDBRANCH  10  84
ENDBRANCH   8  10
ENDBRANCH   5   6
ENDBRANCH   1   5
TORSDOF 38
ENDMDL
MODEL 2
REMARK VINA RESULT:      -4.3      2.325      6.276
REMARK WARNING: 32 MAX_TORS EXCEEDED!!!
REMARK  38 active torsions:
REMARK  status: ('A' for Active; 'I' for Inactive)
REMARK    1  A    between atoms: N_1  and  CA_2 
REMARK    2  A    between atoms: CA_2  and  C_3 
REMARK       I    between atoms: C_3  and  N_8 
REMARK    3  A    between atoms: N_8  and  CA_9 
REMARK    4  A    between atoms: CA_9  and  C_10 
REMARK    5  A    between atoms: CA_9  and  CB_12 
REMARK       I    between atoms: C_10  and  N_17 
REMARK    6  A    between atoms: CB_12  and  CG_13 
REMARK    7  A    between atoms: N_17  and  CA_18 
REMARK    8  A    between atoms: CA_18  and  C_19 
REMARK    9  A    between atoms: CA_18  and  CB_21 
REMARK       I    between atoms: C_19  and  N_26 
REMARK   10  A    between atoms: CB_21  and  CG_22 
REMARK   11  A    between atoms: N_26  and  CA_27 
REMARK   12  A    between atoms: CA_27  and  C_28 
REMARK   13  A    between atoms: CA_27  and  CB_30 
REMARK       I    between atoms: C_28  and  N_39 
REMARK   14  A    between atoms: CB_30  and  CG_31 
REMARK   15  A    between atoms: CG_31  and  CD_32 
REMARK   16  A    between atoms: CD_32  and  CE_33 
REMARK   17  A    between atoms: CE_33  and  NZ_34 
REMARK   18  A    between atoms: N_39  and  CA_40 
REMARK   19  A    between atoms: CA_40  and  CB_43 
REMARK   20  A    between atoms: CA_40  and  C_41 
REMARK       I    between atoms: C_41  and  N_56 
REMARK   21  A    between atoms: CB_43  and  CG_44 
REMARK   22  A    between atoms: CG_44  and  CD_45 
REMARK   23  A    between atoms: CD_45  and  NE_46 
REMARK       I    between atoms: NE_46  and  CZ_47 
REMARK       I    between atoms: CZ_47  and  NH1_48 
REMARK   24  A    between atoms: N_56  and  CA_57 
REMARK   25  A    between atoms: CA_57  and  C_58 
REMARK   26  A    between atoms: CA_57  and  CB_60 
REMARK       I    between atoms: C_58  and  N_65 
REMARK   27  A    between atoms: CB_60  and  CG1_61 
REMARK   28  A    between atoms: N_65  and  CA_66 
REMARK   29  A    between atoms: CA_66  and  C_67 
REMARK   30  A    between atoms: CA_66  and  CB_69 
REMARK       I    between atoms: C_67  and  N_78 
REMARK   31  A    between atoms: CB_69  and  CG_70 
REMARK   32  A    between atoms: CG_70  and  CD_71 
REMARK   33  A    between atoms: CD_71  and  CE_72 
REMARK   34  A    between atoms: CE_72  and  NZ_73 
REMARK   35  A    between atoms: N_78  and  CA_79 
REMARK   36  A    between atoms: CA_79  and  CB_82 
REMARK   37  A    between atoms: CA_79  and  C_80 
REMARK   38  A    between atoms: CB_82  and  OG1_83 
ROOT
ATOM      1  N   GLY     1      54.661  42.875  50.013  1.00  0.00    -0.055 N 
ATOM      2  H1  GLY     1      54.686  43.405  49.164  1.00 99.99     0.276 HD
ATOM      3  H2  GLY     1      55.021  41.967  49.863  1.00 99.99     0.276 HD
ATOM      4  H3  GLY     1      53.716  42.737  50.277  1.00 99.99     0.276 HD
ENDROOT
BRANCH   1   5
ATOM      5  CA  GLY     1      55.420  43.599  51.051  1.00  0.00     0.292 C 
BRANCH   5   6
ATOM      6  C   GLY     1      56.272  42.640  51.911  1.00  0.00     0.261 C 
ATOM      7  O   GLY     1      55.767  42.093  52.894  1.00  0.00    -0.270 OA
ATOM      8  N   LEU     2      57.590  42.769  51.739  1.00  0.00    -0.337 N 
ATOM      9  H   LEU     2      57.960  43.456  51.117  1.00 99.99     0.164 HD
BRANCH   8  10
ATOM     10  CA  LEU     2      58.629  41.909  52.350  1.00  0.00     0.159 C 
BRANCH  10  11
ATOM     11  C   LEU     2      60.092  42.322  52.081  1.00  0.00     0.251 C 
ATOM     12  N   LEU     3      60.680  41.795  51.003  1.00  0.00    -0.338 N 
ATOM     13  H   LEU     3      60.260  41.032  50.518  1.00 99.99     0.164 HD
ATOM     14  O   LEU     2      60.587  43.228  52.748  1.00  0.00    -0.271 OA
BRANCH  12  15
ATOM     15  CA  LEU     3      62.049  42.113  50.532  1.00  0.00     0.159 C 
BRANCH  15  16
ATOM     16  C   LEU     3      62.205  43.074  49.338  1.00  0.00     0.251 C 
ATOM     17  N   LYS     4      63.401  43.167  48.747  1.00  0.00    -0.338 N 
ATOM     18  H   LYS     4      64.215  42.699  49.095  1.00 99.99     0.164 HD
ATOM     19  O   LEU     3      61.219  43.687  48.936  1.00  0.00    -0.271 OA
BRANCH  17  20
ATOM     20  CA  LYS     4      63.592  43.993  47.532  1.00  0.00     0.159 C 
BRANCH  20  21
ATOM     21  C   LYS     4      63.413  43.170  46.237  1.00  0.00     0.251 C 
ATOM     22  N   ARG     5      62.173  43.061  45.760  1.00  0.00    -0.338 N 
ATOM     23  H   ARG     5      61.427  43.615  46.132  1.00 99.99     0.164 HD
ATOM     24  O   LYS     4      64.400  42.929  45.549  1.00  0.00    -0.271 OA
BRANCH  22  25
ATOM     25  CA  ARG     5      61.786  42.270  44.566  1.00  0.00     0.159 C 
BRANCH  25  26
ATOM     26  CB  ARG     5      61.413  40.844  44.983  1.00  0.00     0.034 C 
BRANCH  26  27
ATOM     27  CG  ARG     5      62.373  39.767  44.474  1.00  0.00     0.027 C 
BRANCH  27  28
ATOM     28  CD  ARG     5      63.461  39.468  45.512  1.00  0.00     0.116 C 
BRANCH  28  29
ATOM     29  NE  ARG     5      64.752  40.079  45.137  1.00  0.00    -0.212 N 
ATOM     30  HE  ARG     5      64.869  41.026  45.430  1.00 99.99     0.178 HD
ATOM     31  CZ  ARG     5      65.754  39.472  44.498  1.00  0.00     0.666 C 
ATOM     32  NH1 ARG     5      65.659  38.206  44.110  1.00  0.00    -0.235 N 
ATOM     33  NH2 ARG     5      66.874  40.127  44.229  1.00  0.00    -0.235 N 
ATOM     34 2HH1 ARG     5      64.818  37.710  44.316  1.00 99.99     0.174 HD
ATOM     35 1HH1 ARG     5      66.416  37.756  43.643  1.00 99.99     0.174 HD
ATOM     36 2HH2 ARG     5      66.986  41.076  44.514  1.00 99.99     0.174 HD
ATOM     37 1HH2 ARG     5      67.616  39.652  43.762  1.00 99.99     0.174 HD
ENDBRANCH  28  29
ENDBRANCH  27  28
ENDBRANCH  26  27
ENDBRANCH  25  26
BRANCH  25  38
ATOM     38  C   ARG     5      60.632  42.835  43.702  1.00  0.00     0.251 C 
ATOM     39  N   ILE     6      60.348  42.142  42.602  1.00  0.00    -0.338 N 
ATOM     40  H   ILE     6      61.010  41.496  42.231  1.00 99.99     0.164 HD
ATOM     41  O   ARG     5      60.215  43.976  43.889  1.00  0.00    -0.271 OA
BRANCH  39  42
ATOM     42  CA  ILE     6      59.179  42.397  41.726  1.00  0.00     0.159 C 
BRANCH  42  43
ATOM     43  C   ILE     6      58.012  41.437  42.077  1.00  0.00     0.251 C 
ATOM     44  N   LYS     7      57.742  41.280  43.374  1.00  0.00    -0.338 N 
ATOM     45  H   LYS     7      58.294  41.728  44.074  1.00 99.99     0.164 HD
ATOM     46  O   ILE     6      57.412  40.825  41.194  1.00  0.00    -0.271 OA
BRANCH  44  47
ATOM     47  CA  LYS     7      56.654  40.436  43.921  1.00  0.00     0.159 C 
BRANCH  47  48
ATOM     48  C   LYS     7      56.165  40.854  45.322  1.00  0.00     0.251 C 
ATOM     49  O   LYS     7      55.015  40.602  45.674  1.00  0.00    -0.271 OA
ATOM     50  N   THR     8      57.124  41.177  46.186  1.00  0.00    -0.335 N 
ATOM     51  H   THR     8      58.061  40.839  46.057  1.00 99.99     0.164 HD
BRANCH  50  52
ATOM     52  CA  THR     8      56.911  41.937  47.439  1.00  0.00     0.195 C 
BRANCH  52  53
ATOM     53  CB  THR     8      57.957  41.560  48.508  1.00  0.00     0.141 C 
ATOM     54  CG2 THR     8      58.998  40.558  47.993  1.00  0.00     0.034 C 
BRANCH  53  55
ATOM     55  OG1 THR     8      58.628  42.726  48.991  1.00  0.00    -0.382 OA
ATOM     56  HG1 THR     8      58.062  43.533  48.816  1.00 99.99     0.210 HD
ENDBRANCH  53  55
ENDBRANCH  52  53
BRANCH  52  57
ATOM     57  C   THR     8      57.118  43.422  47.099  1.00  0.00     0.209 C 
ATOM     58  OXT THR     8      56.365  44.219  47.701  1.00 99.99    -0.646 OA
ATOM     59  O   THR     8      57.972  43.718  46.235  1.00 99.99    -0.646 OA
ENDBRANCH  52  57
ENDBRANCH  50  52
ENDBRANCH  47  48
BRANCH  47  60
ATOM     60  CB  LYS     7      57.107  38.978  43.975  1.00  0.00     0.032 C 
BRANCH  60  61
ATOM     61  CG  LYS     7      56.022  37.998  43.530  1.00  0.00     0.004 C 
BRANCH  61  62
ATOM     62  CD  LYS     7      55.788  36.998  44.659  1.00  0.00     0.032 C 
BRANCH  62  63
ATOM     63  CE  LYS     7      54.304  36.856  44.991  1.00  0.00     0.206 C 
BRANCH  63  64
ATOM     64  NZ  LYS     7      53.917  37.887  45.961  1.00  0.00    -0.064 N 
ATOM     65  HZ1 LYS     7      53.463  38.640  45.486  1.00 99.99     0.275 HD
ATOM     66  HZ2 LYS     7      53.300  37.491  46.641  1.00 99.99     0.275 HD
ATOM     67  HZ3 LYS     7      54.739  38.228  46.419  1.00 99.99     0.275 HD
ENDBRANCH  63  64
ENDBRANCH  62  63
ENDBRANCH  61  62
ENDBRANCH  60  61
ENDBRANCH  47  60
ENDBRANCH  44  47
ENDBRANCH  42  43
BRANCH  42  68
ATOM     68  CB  ILE     6      59.601  42.287  40.238  1.00  0.00     0.029 C 
ATOM     69  CG2 ILE     6      59.622  43.669  39.558  1.00  0.00     0.002 C 
BRANCH  68  70
ATOM     70  CG1 ILE     6      60.983  41.618  40.101  1.00  0.00     0.002 C 
ATOM     71  CD  ILE     6      61.707  41.909  38.777  1.00  0.00     0.000 C 
ENDBRANCH  68  70
ENDBRANCH  42  68
ENDBRANCH  39  42
ENDBRANCH  25  38
ENDBRANCH  22  25
ENDBRANCH  20  21
BRANCH  20  72
ATOM     72  CB  LYS     4      64.927  44.756  47.552  1.00  0.00     0.032 C 
BRANCH  72  73
ATOM     73  CG  LYS     4      65.830  44.234  48.680  1.00  0.00     0.004 C 
BRANCH  73  74
ATOM     74  CD  LYS     4      66.666  45.315  49.374  1.00  0.00     0.032 C 
BRANCH  74  75
ATOM     75  CE  LYS     4      65.849  46.608  49.481  1.00  0.00     0.206 C 
BRANCH  75  76
ATOM     76  NZ  LYS     4      66.576  47.795  48.998  1.00  0.00    -0.064 N 
ATOM     77  HZ3 LYS     4      65.945  48.423  48.545  1.00 99.99     0.275 HD
ATOM     78  HZ2 LYS     4      67.291  47.515  48.357  1.00 99.99     0.275 HD
ATOM     79  HZ1 LYS     4      67.001  48.260  49.775  1.00 99.99     0.275 HD
ENDBRANCH  75  76
ENDBRANCH  74  75
ENDBRANCH  73  74
ENDBRANCH  72  73
ENDBRANCH  20  72
ENDBRANCH  17  20
ENDBRANCH  15  16
BRANCH  15  80
ATOM     80  CB  LEU     3      62.806  40.814  50.222  1.00  0.00     0.032 C 
BRANCH  80  81
ATOM     81  CG  LEU     3      61.979  39.545  50.462  1.00  0.00     0.002 C 
ATOM     82  CD1 LEU     3      62.007  38.675  49.204  1.00  0.00     0.000 C 
ATOM     83  CD2 LEU     3      62.518  38.741  51.651  1.00  0.00     0.000 C 
ENDBRANCH  80  81
ENDBRANCH  15  80
ENDBRANCH  12  15
ENDBRANCH  10  11
BRANCH  10  84
ATOM     84  CB  LEU     2      58.340  40.467  51.904  1.00  0.00     0.032 C 
BRANCH  84  85
ATOM     85  CG  LEU     2      58.858  39.370  52.843  1.00  0.00     0.002 C 
ATOM     86  CD1 LEU     2      58.035  39.285  54.134  1.00  0.00     0.000 C 
ATOM     87  CD2 LEU     2      58.836  38.027  52.114  1.00  0.00     0.000 C 
ENDBRANCH  84  85
ENDBRANCH  10  84
ENDBRANCH   8  10
ENDBRANCH   5   6
ENDBRANCH   1   5
TORSDOF 38
ENDMDL
MODEL 3
REMARK VINA RESULT:      -4.1      2.663      6.082
REMARK WARNING: 32 MAX_TORS EXCEEDED!!!
REMARK  38 active torsions:
REMARK  status: ('A' for Active; 'I' for Inactive)
REMARK    1  A    between atoms: N_1  and  CA_2 
REMARK    2  A    between atoms: CA_2  and  C_3 
REMARK       I    between atoms: C_3  and  N_8 
REMARK    3  A    between atoms: N_8  and  CA_9 
REMARK    4  A    between atoms: CA_9  and  C_10 
REMARK    5  A    between atoms: CA_9  and  CB_12 
REMARK       I    between atoms: C_10  and  N_17 
REMARK    6  A    between atoms: CB_12  and  CG_13 
REMARK    7  A    between atoms: N_17  and  CA_18 
REMARK    8  A    between atoms: CA_18  and  C_19 
REMARK    9  A    between atoms: CA_18  and  CB_21 
REMARK       I    between atoms: C_19  and  N_26 
REMARK   10  A    between atoms: CB_21  and  CG_22 
REMARK   11  A    between atoms: N_26  and  CA_27 
REMARK   12  A    between atoms: CA_27  and  C_28 
REMARK   13  A    between atoms: CA_27  and  CB_30 
REMARK       I    between atoms: C_28  and  N_39 
REMARK   14  A    between atoms: CB_30  and  CG_31 
REMARK   15  A    between atoms: CG_31  and  CD_32 
REMARK   16  A    between atoms: CD_32  and  CE_33 
REMARK   17  A    between atoms: CE_33  and  NZ_34 
REMARK   18  A    between atoms: N_39  and  CA_40 
REMARK   19  A    between atoms: CA_40  and  CB_43 
REMARK   20  A    between atoms: CA_40  and  C_41 
REMARK       I    between atoms: C_41  and  N_56 
REMARK   21  A    between atoms: CB_43  and  CG_44 
REMARK   22  A    between atoms: CG_44  and  CD_45 
REMARK   23  A    between atoms: CD_45  and  NE_46 
REMARK       I    between atoms: NE_46  and  CZ_47 
REMARK       I    between atoms: CZ_47  and  NH1_48 
REMARK   24  A    between atoms: N_56  and  CA_57 
REMARK   25  A    between atoms: CA_57  and  C_58 
REMARK   26  A    between atoms: CA_57  and  CB_60 
REMARK       I    between atoms: C_58  and  N_65 
REMARK   27  A    between atoms: CB_60  and  CG1_61 
REMARK   28  A    between atoms: N_65  and  CA_66 
REMARK   29  A    between atoms: CA_66  and  C_67 
REMARK   30  A    between atoms: CA_66  and  CB_69 
REMARK       I    between atoms: C_67  and  N_78 
REMARK   31  A    between atoms: CB_69  and  CG_70 
REMARK   32  A    between atoms: CG_70  and  CD_71 
REMARK   33  A    between atoms: CD_71  and  CE_72 
REMARK   34  A    between atoms: CE_72  and  NZ_73 
REMARK   35  A    between atoms: N_78  and  CA_79 
REMARK   36  A    between atoms: CA_79  and  CB_82 
REMARK   37  A    between atoms: CA_79  and  C_80 
REMARK   38  A    between atoms: CB_82  and  OG1_83 
ROOT
ATOM      1  N   GLY     1      68.783  39.829  41.659  1.00  0.00    -0.055 N 
ATOM      2  H1  GLY     1      68.133  39.202  42.090  1.00 99.99     0.276 HD
ATOM      3  H2  GLY     1      68.656  39.835  40.679  1.00 99.99     0.276 HD
ATOM      4  H3  GLY     1      69.701  39.484  41.797  1.00 99.99     0.276 HD
ENDROOT
BRANCH   1   5
ATOM      5  CA  GLY     1      68.609  41.174  42.240  1.00  0.00     0.292 C 
BRANCH   5   6
ATOM      6  C   GLY     1      67.723  41.142  43.505  1.00  0.00     0.261 C 
ATOM      7  O   GLY     1      66.928  40.213  43.667  1.00  0.00    -0.270 OA
ATOM      8  N   LEU     2      67.622  42.313  44.137  1.00  0.00    -0.337 N 
ATOM      9  H   LEU     2      68.074  43.128  43.779  1.00 99.99     0.164 HD
BRANCH   8  10
ATOM     10  CA  LEU     2      66.931  42.543  45.426  1.00  0.00     0.159 C 
BRANCH  10  11
ATOM     11  C   LEU     2      65.458  42.995  45.333  1.00  0.00     0.251 C 
ATOM     12  N   LEU     3      64.593  42.128  44.797  1.00  0.00    -0.338 N 
ATOM     13  H   LEU     3      64.919  41.320  44.311  1.00 99.99     0.164 HD
ATOM     14  O   LEU     2      65.116  44.030  45.897  1.00  0.00    -0.271 OA
BRANCH  12  15
ATOM     15  CA  LEU     3      63.131  42.338  44.679  1.00  0.00     0.159 C 
BRANCH  15  16
ATOM     16  C   LEU     3      62.269  42.208  45.950  1.00  0.00     0.251 C 
ATOM     17  N   LYS     4      62.147  43.272  46.749  1.00  0.00    -0.338 N 
ATOM     18  H   LYS     4      62.653  44.124  46.598  1.00 99.99     0.164 HD
ATOM     19  O   LEU     3      61.684  41.149  46.164  1.00  0.00    -0.271 OA
BRANCH  17  20
ATOM     20  CA  LYS     4      61.253  43.245  47.929  1.00  0.00     0.159 C 
BRANCH  20  21
ATOM     21  C   LYS     4      59.775  43.481  47.543  1.00  0.00     0.251 C 
ATOM     22  N   ARG     5      58.981  42.410  47.519  1.00  0.00    -0.338 N 
ATOM     23  H   ARG     5      59.289  41.532  47.886  1.00 99.99     0.164 HD
ATOM     24  O   LYS     4      59.330  44.623  47.585  1.00  0.00    -0.271 OA
BRANCH  22  25
ATOM     25  CA  ARG     5      57.552  42.418  47.120  1.00  0.00     0.159 C 
BRANCH  25  26
ATOM     26  CB  ARG     5      57.132  41.018  46.659  1.00  0.00     0.034 C 
BRANCH  26  27
ATOM     27  CG  ARG     5      56.983  40.873  45.144  1.00  0.00     0.027 C 
BRANCH  27  28
ATOM     28  CD  ARG     5      58.133  41.571  44.410  1.00  0.00     0.116 C 
BRANCH  28  29
ATOM     29  NE  ARG     5      57.745  41.964  43.040  1.00  0.00    -0.212 N 
ATOM     30  HE  ARG     5      57.305  42.857  42.970  1.00 99.99     0.178 HD
ATOM     31  CZ  ARG     5      57.967  41.262  41.928  1.00  0.00     0.666 C 
ATOM     32  NH1 ARG     5      58.571  40.081  41.965  1.00  0.00    -0.235 N 
ATOM     33  NH2 ARG     5      57.580  41.730  40.750  1.00  0.00    -0.235 N 
ATOM     34 2HH1 ARG     5      58.867  39.729  42.850  1.00 99.99     0.174 HD
ATOM     35 1HH1 ARG     5      58.744  39.568  41.128  1.00 99.99     0.174 HD
ATOM     36 2HH2 ARG     5      57.132  42.619  40.681  1.00 99.99     0.174 HD
ATOM     37 1HH2 ARG     5      57.766  41.197  39.928  1.00 99.99     0.174 HD
ENDBRANCH  28  29
ENDBRANCH  27  28
ENDBRANCH  26  27
ENDBRANCH  25  26
BRANCH  25  38
ATOM     38  C   ARG     5      56.536  42.899  48.184  1.00  0.00     0.251 C 
ATOM     39  N   ILE     6      55.960  41.938  48.901  1.00  0.00    -0.338 N 
ATOM     40  H   ILE     6      55.969  40.996  48.576  1.00 99.99     0.164 HD
ATOM     41  O   ARG     5      56.110  44.052  48.161  1.00  0.00    -0.271 OA
BRANCH  39  42
ATOM     42  CA  ILE     6      55.095  42.174  50.082  1.00  0.00     0.159 C 
BRANCH  42  43
ATOM     43  C   ILE     6      55.945  42.604  51.307  1.00  0.00     0.251 C 
ATOM     44  N   LYS     7      56.830  41.713  51.757  1.00  0.00    -0.338 N 
ATOM     45  H   LYS     7      56.903  40.806  51.348  1.00 99.99     0.164 HD
ATOM     46  O   ILE     6      55.765  43.694  51.848  1.00  0.00    -0.271 OA
BRANCH  44  47
ATOM     47  CA  LYS     7      57.757  41.933  52.891  1.00  0.00     0.159 C 
BRANCH  47  48
ATOM     48  C   LYS     7      59.224  42.171  52.479  1.00  0.00     0.251 C 
ATOM     49  O   LYS     7      59.823  43.168  52.876  1.00  0.00    -0.271 OA
ATOM     50  N   THR     8      59.853  41.110  51.978  1.00  0.00    -0.335 N 
ATOM     51  H   THR     8      59.529  40.182  52.184  1.00 99.99     0.164 HD
BRANCH  50  52
ATOM     52  CA  THR     8      61.110  41.165  51.196  1.00  0.00     0.195 C 
BRANCH  52  53
ATOM     53  CB  THR     8      62.267  40.477  51.948  1.00  0.00     0.141 C 
ATOM     54  CG2 THR     8      62.797  41.315  53.118  1.00  0.00     0.034 C 
BRANCH  53  55
ATOM     55  OG1 THR     8      61.863  39.195  52.435  1.00  0.00    -0.382 OA
ATOM     56  HG1 THR     8      62.133  38.489  51.778  1.00 99.99     0.210 HD
ENDBRANCH  53  55
ENDBRANCH  52  53
BRANCH  52  57
ATOM     57  C   THR     8      60.863  40.367  49.905  1.00  0.00     0.209 C 
ATOM     58  OXT THR     8      61.873  39.811  49.419  1.00 99.99    -0.646 OA
ATOM     59  O   THR     8      59.712  40.367  49.420  1.00 99.99    -0.646 OA
ENDBRANCH  52  57
ENDBRANCH  50  52
ENDBRANCH  47  48
BRANCH  47  60
ATOM     60  CB  LYS     7      57.703  40.740  53.843  1.00  0.00     0.032 C 
BRANCH  60  61
ATOM     61  CG  LYS     7      56.299  40.466  54.379  1.00  0.00     0.004 C 
BRANCH  61  62
ATOM     62  CD  LYS     7      55.901  39.049  53.977  1.00  0.00     0.032 C 
BRANCH  62  63
ATOM     63  CE  LYS     7      54.442  38.752  54.318  1.00  0.00     0.206 C 
BRANCH  63  64
ATOM     64  NZ  LYS     7      53.569  39.679  53.587  1.00  0.00    -0.064 N 
ATOM     65  HZ1 LYS     7      52.617  39.514  53.841  1.00 99.99     0.275 HD
ATOM     66  HZ2 LYS     7      53.823  40.621  53.808  1.00 99.99     0.275 HD
ATOM     67  HZ3 LYS     7      53.684  39.528  52.605  1.00 99.99     0.275 HD
ENDBRANCH  63  64
ENDBRANCH  62  63
ENDBRANCH  61  62
ENDBRANCH  60  61
ENDBRANCH  47  60
ENDBRANCH  44  47
ENDBRANCH  42  43
BRANCH  42  68
ATOM     68  CB  ILE     6      54.244  40.911  50.373  1.00  0.00     0.029 C 
ATOM     69  CG2 ILE     6      52.805  41.072  49.849  1.00  0.00     0.002 C 
BRANCH  68  70
ATOM     70  CG1 ILE     6      54.887  39.653  49.755  1.00  0.00     0.002 C 
ATOM     71  CD  ILE     6      54.031  38.956  48.687  1.00  0.00     0.000 C 
ENDBRANCH  68  70
ENDBRANCH  42  68
ENDBRANCH  39  42
ENDBRANCH  25  38
ENDBRANCH  22  25
ENDBRANCH  20  21
BRANCH  20  72
ATOM     72  CB  LYS     4      61.721  44.204  49.037  1.00  0.00     0.032 C 
BRANCH  72  73
ATOM     73  CG  LYS     4      63.112  43.800  49.547  1.00  0.00     0.004 C 
BRANCH  73  74
ATOM     74  CD  LYS     4      63.980  44.972  50.019  1.00  0.00     0.032 C 
BRANCH  74  75
ATOM     75  CE  LYS     4      64.146  45.981  48.876  1.00  0.00     0.206 C 
BRANCH  75  76
ATOM     76  NZ  LYS     4      65.066  47.084  49.207  1.00  0.00    -0.064 N 
ATOM     77  HZ3 LYS     4      64.556  47.849  49.601  1.00 99.99     0.275 HD
ATOM     78  HZ2 LYS     4      65.541  47.386  48.381  1.00 99.99     0.275 HD
ATOM     79  HZ1 LYS     4      65.741  46.763  49.871  1.00 99.99     0.275 HD
ENDBRANCH  75  76
ENDBRANCH  74  75
ENDBRANCH  73  74
ENDBRANCH  72  73
ENDBRANCH  20  72
ENDBRANCH  17  20
ENDBRANCH  15  16
BRANCH  15  80
ATOM     80  CB  LEU     3      62.559  41.410  43.598  1.00  0.00     0.032 C 
BRANCH  80  81
ATOM     81  CG  LEU     3      62.871  41.862  42.167  1.00  0.00     0.002 C 
ATOM     82  CD1 LEU     3      63.908  40.921  41.552  1.00  0.00     0.000 C 
ATOM     83  CD2 LEU     3      61.610  41.875  41.294  1.00  0.00     0.000 C 
ENDBRANCH  80  81
ENDBRANCH  15  80
ENDBRANCH  12  15
ENDBRANCH  10  11
BRANCH  10  84
ATOM     84  CB  LEU     2      67.793  43.529  46.229  1.00  0.00     0.032 C 
BRANCH  84  85
ATOM     85  CG  LEU     2      68.789  42.891  47.206  1.00  0.00     0.002 C 
ATOM     86  CD1 LEU     2      68.402  41.451  47.560  1.00  0.00     0.000 C 
ATOM     87  CD2 LEU     2      70.191  42.927  46.595  1.00  0.00     0.000 C 
ENDBRANCH  84  85
ENDBRANCH  10  84
ENDBRANCH   8  10
ENDBRANCH   5   6
ENDBRANCH   1   5
TORSDOF 38
ENDMDL
MODEL 4
REMARK VINA RESULT:      -4.1      2.174      7.355
REMARK WARNING: 32 MAX_TORS EXCEEDED!!!
REMARK  38 active torsions:
REMARK  status: ('A' for Active; 'I' for Inactive)
REMARK    1  A    between atoms: N_1  and  CA_2 
REMARK    2  A    between atoms: CA_2  and  C_3 
REMARK       I    between atoms: C_3  and  N_8 
REMARK    3  A    between atoms: N_8  and  CA_9 
REMARK    4  A    between atoms: CA_9  and  C_10 
REMARK    5  A    between atoms: CA_9  and  CB_12 
REMARK       I    between atoms: C_10  and  N_17 
REMARK    6  A    between atoms: CB_12  and  CG_13 
REMARK    7  A    between atoms: N_17  and  CA_18 
REMARK    8  A    between atoms: CA_18  and  C_19 
REMARK    9  A    between atoms: CA_18  and  CB_21 
REMARK       I    between atoms: C_19  and  N_26 
REMARK   10  A    between atoms: CB_21  and  CG_22 
REMARK   11  A    between atoms: N_26  and  CA_27 
REMARK   12  A    between atoms: CA_27  and  C_28 
REMARK   13  A    between atoms: CA_27  and  CB_30 
REMARK       I    between atoms: C_28  and  N_39 
REMARK   14  A    between atoms: CB_30  and  CG_31 
REMARK   15  A    between atoms: CG_31  and  CD_32 
REMARK   16  A    between atoms: CD_32  and  CE_33 
REMARK   17  A    between atoms: CE_33  and  NZ_34 
REMARK   18  A    between atoms: N_39  and  CA_40 
REMARK   19  A    between atoms: CA_40  and  CB_43 
REMARK   20  A    between atoms: CA_40  and  C_41 
REMARK       I    between atoms: C_41  and  N_56 
REMARK   21  A    between atoms: CB_43  and  CG_44 
REMARK   22  A    between atoms: CG_44  and  CD_45 
REMARK   23  A    between atoms: CD_45  and  NE_46 
REMARK       I    between atoms: NE_46  and  CZ_47 
REMARK       I    between atoms: CZ_47  and  NH1_48 
REMARK   24  A    between atoms: N_56  and  CA_57 
REMARK   25  A    between atoms: CA_57  and  C_58 
REMARK   26  A    between atoms: CA_57  and  CB_60 
REMARK       I    between atoms: C_58  and  N_65 
REMARK   27  A    between atoms: CB_60  and  CG1_61 
REMARK   28  A    between atoms: N_65  and  CA_66 
REMARK   29  A    between atoms: CA_66  and  C_67 
REMARK   30  A    between atoms: CA_66  and  CB_69 
REMARK       I    between atoms: C_67  and  N_78 
REMARK   31  A    between atoms: CB_69  and  CG_70 
REMARK   32  A    between atoms: CG_70  and  CD_71 
REMARK   33  A    between atoms: CD_71  and  CE_72 
REMARK   34  A    between atoms: CE_72  and  NZ_73 
REMARK   35  A    between atoms: N_78  and  CA_79 
REMARK   36  A    between atoms: CA_79  and  CB_82 
REMARK   37  A    between atoms: CA_79  and  C_80 
REMARK   38  A    between atoms: CB_82  and  OG1_83 
ROOT
ATOM      1  N   GLY     1      65.168  46.611  50.117  1.00  0.00    -0.055 N 
ATOM      2  H1  GLY     1      65.721  46.114  49.446  1.00 99.99     0.276 HD
ATOM      3  H2  GLY     1      65.445  47.558  50.158  1.00 99.99     0.276 HD
ATOM      4  H3  GLY     1      65.357  46.248  51.019  1.00 99.99     0.276 HD
ENDROOT
BRANCH   1   5
ATOM      5  CA  GLY     1      63.743  46.473  49.759  1.00  0.00     0.292 C 
BRANCH   5   6
ATOM      6  C   GLY     1      63.423  45.065  49.212  1.00  0.00     0.261 C 
ATOM      7  O   GLY     1      62.249  44.735  49.031  1.00  0.00    -0.270 OA
ATOM      8  N   LEU     2      64.422  44.187  49.331  1.00  0.00    -0.337 N 
ATOM      9  H   LEU     2      65.282  44.447  49.766  1.00 99.99     0.164 HD
BRANCH   8  10
ATOM     10  CA  LEU     2      64.428  42.807  48.796  1.00  0.00     0.159 C 
BRANCH  10  11
ATOM     11  C   LEU     2      63.942  41.705  49.762  1.00  0.00     0.251 C 
ATOM     12  N   LEU     3      62.866  41.984  50.503  1.00  0.00    -0.338 N 
ATOM     13  H   LEU     3      62.521  42.916  50.567  1.00 99.99     0.164 HD
ATOM     14  O   LEU     2      64.441  40.585  49.686  1.00  0.00    -0.271 OA
BRANCH  12  15
ATOM     15  CA  LEU     3      62.202  41.043  51.437  1.00  0.00     0.159 C 
BRANCH  15  16
ATOM     16  C   LEU     3      61.110  40.110  50.880  1.00  0.00     0.251 C 
ATOM     17  N   LYS     4      59.842  40.321  51.248  1.00  0.00    -0.338 N 
ATOM     18  H   LYS     4      59.583  41.009  51.928  1.00 99.99     0.164 HD
ATOM     19  O   LEU     3      61.430  39.233  50.081  1.00  0.00    -0.271 OA
BRANCH  17  20
ATOM     20  CA  LYS     4      58.734  39.526  50.669  1.00  0.00     0.159 C 
BRANCH  20  21
ATOM     21  C   LYS     4      58.067  40.244  49.475  1.00  0.00     0.251 C 
ATOM     22  N   ARG     5      57.664  41.499  49.676  1.00  0.00    -0.338 N 
ATOM     23  H   ARG     5      57.926  41.998  50.503  1.00 99.99     0.164 HD
ATOM     24  O   LYS     4      58.213  39.778  48.350  1.00  0.00    -0.271 OA
BRANCH  22  25
ATOM     25  CA  ARG     5      56.954  42.336  48.678  1.00  0.00     0.159 C 
BRANCH  25  26
ATOM     26  CB  ARG     5      55.849  43.144  49.367  1.00  0.00     0.034 C 
BRANCH  26  27
ATOM     27  CG  ARG     5      54.973  42.328  50.319  1.00  0.00     0.027 C 
BRANCH  27  28
ATOM     28  CD  ARG     5      53.628  41.987  49.670  1.00  0.00     0.116 C 
BRANCH  28  29
ATOM     29  NE  ARG     5      53.674  40.683  48.976  1.00  0.00    -0.212 N 
ATOM     30  HE  ARG     5      54.579  40.413  48.651  1.00 99.99     0.178 HD
ATOM     31  CZ  ARG     5      52.647  39.852  48.794  1.00  0.00     0.666 C 
ATOM     32  NH1 ARG     5      51.429  40.154  49.229  1.00  0.00    -0.235 N 
ATOM     33  NH2 ARG     5      52.819  38.700  48.163  1.00  0.00    -0.235 N 
ATOM     34 2HH1 ARG     5      51.299  41.019  49.707  1.00 99.99     0.174 HD
ATOM     35 1HH1 ARG     5      50.669  39.522  49.099  1.00 99.99     0.174 HD
ATOM     36 2HH2 ARG     5      53.721  38.434  47.831  1.00 99.99     0.174 HD
ATOM     37 1HH2 ARG     5      52.041  38.085  48.048  1.00 99.99     0.174 HD
ENDBRANCH  28  29
ENDBRANCH  27  28
ENDBRANCH  26  27
ENDBRANCH  25  26
BRANCH  25  38
ATOM     38  C   ARG     5      57.820  43.315  47.849  1.00  0.00     0.251 C 
ATOM     39  N   ILE     6      58.941  42.803  47.347  1.00  0.00    -0.338 N 
ATOM     40  H   ILE     6      59.319  41.960  47.720  1.00 99.99     0.164 HD
ATOM     41  O   ARG     5      57.610  44.525  47.896  1.00  0.00    -0.271 OA
BRANCH  39  42
ATOM     42  CA  ILE     6      59.828  43.502  46.385  1.00  0.00     0.159 C 
BRANCH  42  43
ATOM     43  C   ILE     6      59.247  43.424  44.949  1.00  0.00     0.251 C 
ATOM     44  N   LYS     7      58.983  42.204  44.481  1.00  0.00    -0.338 N 
ATOM     45  H   LYS     7      59.192  41.389  45.018  1.00 99.99     0.164 HD
ATOM     46  O   ILE     6      59.090  44.442  44.277  1.00  0.00    -0.271 OA
BRANCH  44  47
ATOM     47  CA  LYS     7      58.400  41.909  43.151  1.00  0.00     0.159 C 
BRANCH  47  48
ATOM     48  C   LYS     7      57.562  40.616  43.094  1.00  0.00     0.251 C 
ATOM     49  O   LYS     7      57.486  39.976  42.048  1.00  0.00    -0.271 OA
ATOM     50  N   THR     8      57.233  40.099  44.275  1.00  0.00    -0.335 N 
ATOM     51  H   THR     8      57.772  40.317  45.095  1.00 99.99     0.164 HD
BRANCH  50  52
ATOM     52  CA  THR     8      56.162  39.098  44.491  1.00  0.00     0.195 C 
BRANCH  52  53
ATOM     53  CB  THR     8      56.740  37.758  44.987  1.00  0.00     0.141 C 
ATOM     54  CG2 THR     8      57.235  36.864  43.843  1.00  0.00     0.034 C 
BRANCH  53  55
ATOM     55  OG1 THR     8      57.813  37.979  45.906  1.00  0.00    -0.382 OA
ATOM     56  HG1 THR     8      58.308  37.121  46.052  1.00 99.99     0.210 HD
ENDBRANCH  53  55
ENDBRANCH  52  53
BRANCH  52  57
ATOM     57  C   THR     8      55.259  39.649  45.607  1.00  0.00     0.209 C 
ATOM     58  OXT THR     8      54.544  40.624  45.284  1.00 99.99    -0.646 OA
ATOM     59  O   THR     8      55.331  39.127  46.740  1.00 99.99    -0.646 OA
ENDBRANCH  52  57
ENDBRANCH  50  52
ENDBRANCH  47  48
BRANCH  47  60
ATOM     60  CB  LYS     7      59.510  41.820  42.106  1.00  0.00     0.032 C 
BRANCH  60  61
ATOM     61  CG  LYS     7      59.685  43.112  41.308  1.00  0.00     0.004 C 
BRANCH  61  62
ATOM     62  CD  LYS     7      59.435  42.802  39.835  1.00  0.00     0.032 C 
BRANCH  62  63
ATOM     63  CE  LYS     7      59.299  44.076  39.004  1.00  0.00     0.206 C 
BRANCH  63  64
ATOM     64  NZ  LYS     7      58.822  43.735  37.659  1.00  0.00    -0.064 N 
ATOM     65  HZ1 LYS     7      59.244  42.881  37.359  1.00 99.99     0.275 HD
ATOM     66  HZ2 LYS     7      57.826  43.637  37.672  1.00 99.99     0.275 HD
ATOM     67  HZ3 LYS     7      59.072  44.471  37.028  1.00 99.99     0.275 HD
ENDBRANCH  63  64
ENDBRANCH  62  63
ENDBRANCH  61  62
ENDBRANCH  60  61
ENDBRANCH  47  60
ENDBRANCH  44  47
ENDBRANCH  42  43
BRANCH  42  68
ATOM     68  CB  ILE     6      61.262  42.918  46.471  1.00  0.00     0.029 C 
ATOM     69  CG2 ILE     6      61.257  41.509  47.091  1.00  0.00     0.002 C 
BRANCH  68  70
ATOM     70  CG1 ILE     6      61.929  42.875  45.082  1.00  0.00     0.002 C 
ATOM     71  CD  ILE     6      62.338  41.471  44.611  1.00  0.00     0.000 C 
ENDBRANCH  68  70
ENDBRANCH  42  68
ENDBRANCH  39  42
ENDBRANCH  25  38
ENDBRANCH  22  25
ENDBRANCH  20  21
BRANCH  20  72
ATOM     72  CB  LYS     4      57.709  39.097  51.732  1.00  0.00     0.032 C 
BRANCH  72  73
ATOM     73  CG  LYS     4      56.404  38.637  51.066  1.00  0.00     0.004 C 
BRANCH  73  74
ATOM     74  CD  LYS     4      55.425  37.929  52.010  1.00  0.00     0.032 C 
BRANCH  74  75
ATOM     75  CE  LYS     4      54.051  38.603  51.927  1.00  0.00     0.206 C 
BRANCH  75  76
ATOM     76  NZ  LYS     4      53.923  39.768  52.820  1.00  0.00    -0.064 N 
ATOM     77  HZ3 LYS     4      53.131  40.319  52.553  1.00 99.99     0.275 HD
ATOM     78  HZ2 LYS     4      54.752  40.325  52.770  1.00 99.99     0.275 HD
ATOM     79  HZ1 LYS     4      53.800  39.451  53.760  1.00 99.99     0.275 HD
ENDBRANCH  75  76
ENDBRANCH  74  75
ENDBRANCH  73  74
ENDBRANCH  72  73
ENDBRANCH  20  72
ENDBRANCH  17  20
ENDBRANCH  15  16
BRANCH  15  80
ATOM     80  CB  LEU     3      61.626  41.817  52.631  1.00  0.00     0.032 C 
BRANCH  80  81
ATOM     81  CG  LEU     3      62.189  41.371  53.986  1.00  0.00     0.002 C 
ATOM     82  CD1 LEU     3      61.189  40.436  54.668  1.00  0.00     0.000 C 
ATOM     83  CD2 LEU     3      63.535  40.653  53.826  1.00  0.00     0.000 C 
ENDBRANCH  80  81
ENDBRANCH  15  80
ENDBRANCH  12  15
ENDBRANCH  10  11
BRANCH  10  84
ATOM     84  CB  LEU     2      65.844  42.535  48.267  1.00  0.00     0.032 C 
BRANCH  84  85
ATOM     85  CG  LEU     2      65.957  42.345  46.749  1.00  0.00     0.002 C 
ATOM     86  CD1 LEU     2      65.355  41.012  46.291  1.00  0.00     0.000 C 
ATOM     87  CD2 LEU     2      65.263  43.509  46.040  1.00  0.00     0.000 C 
ENDBRANCH  84  85
ENDBRANCH  10  84
ENDBRANCH   8  10
ENDBRANCH   5   6
ENDBRANCH   1   5
TORSDOF 38
ENDMDL
MODEL 5
REMARK VINA RESULT:      -4.0      2.734      6.128
REMARK WARNING: 32 MAX_TORS EXCEEDED!!!
REMARK  38 active torsions:
REMARK  status: ('A' for Active; 'I' for Inactive)
REMARK    1  A    between atoms: N_1  and  CA_2 
REMARK    2  A    between atoms: CA_2  and  C_3 
REMARK       I    between atoms: C_3  and  N_8 
REMARK    3  A    between atoms: N_8  and  CA_9 
REMARK    4  A    between atoms: CA_9  and  C_10 
REMARK    5  A    between atoms: CA_9  and  CB_12 
REMARK       I    between atoms: C_10  and  N_17 
REMARK    6  A    between atoms: CB_12  and  CG_13 
REMARK    7  A    between atoms: N_17  and  CA_18 
REMARK    8  A    between atoms: CA_18  and  C_19 
REMARK    9  A    between atoms: CA_18  and  CB_21 
REMARK       I    between atoms: C_19  and  N_26 
REMARK   10  A    between atoms: CB_21  and  CG_22 
REMARK   11  A    between atoms: N_26  and  CA_27 
REMARK   12  A    between atoms: CA_27  and  C_28 
REMARK   13  A    between atoms: CA_27  and  CB_30 
REMARK       I    between atoms: C_28  and  N_39 
REMARK   14  A    between atoms: CB_30  and  CG_31 
REMARK   15  A    between atoms: CG_31  and  CD_32 
REMARK   16  A    between atoms: CD_32  and  CE_33 
REMARK   17  A    between atoms: CE_33  and  NZ_34 
REMARK   18  A    between atoms: N_39  and  CA_40 
REMARK   19  A    between atoms: CA_40  and  CB_43 
REMARK   20  A    between atoms: CA_40  and  C_41 
REMARK       I    between atoms: C_41  and  N_56 
REMARK   21  A    between atoms: CB_43  and  CG_44 
REMARK   22  A    between atoms: CG_44  and  CD_45 
REMARK   23  A    between atoms: CD_45  and  NE_46 
REMARK       I    between atoms: NE_46  and  CZ_47 
REMARK       I    between atoms: CZ_47  and  NH1_48 
REMARK   24  A    between atoms: N_56  and  CA_57 
REMARK   25  A    between atoms: CA_57  and  C_58 
REMARK   26  A    between atoms: CA_57  and  CB_60 
REMARK       I    between atoms: C_58  and  N_65 
REMARK   27  A    between atoms: CB_60  and  CG1_61 
REMARK   28  A    between atoms: N_65  and  CA_66 
REMARK   29  A    between atoms: CA_66  and  C_67 
REMARK   30  A    between atoms: CA_66  and  CB_69 
REMARK       I    between atoms: C_67  and  N_78 
REMARK   31  A    between atoms: CB_69  and  CG_70 
REMARK   32  A    between atoms: CG_70  and  CD_71 
REMARK   33  A    between atoms: CD_71  and  CE_72 
REMARK   34  A    between atoms: CE_72  and  NZ_73 
REMARK   35  A    between atoms: N_78  and  CA_79 
REMARK   36  A    between atoms: CA_79  and  CB_82 
REMARK   37  A    between atoms: CA_79  and  C_80 
REMARK   38  A    between atoms: CB_82  and  OG1_83 
ROOT
ATOM      1  N   GLY     1      69.767  42.311  46.693  1.00  0.00    -0.055 N 
ATOM      2  H1  GLY     1      69.057  41.606  46.705  1.00 99.99     0.276 HD
ATOM      3  H2  GLY     1      70.646  41.911  46.486  1.00 99.99     0.276 HD
ATOM      4  H3  GLY     1      69.862  42.686  47.604  1.00 99.99     0.276 HD
ENDROOT
BRANCH   1   5
ATOM      5  CA  GLY     1      69.394  43.348  45.710  1.00  0.00     0.292 C 
BRANCH   5   6
ATOM      6  C   GLY     1      67.874  43.617  45.709  1.00  0.00     0.261 C 
ATOM      7  O   GLY     1      67.417  44.533  46.395  1.00  0.00    -0.270 OA
ATOM      8  N   LEU     2      67.135  42.601  45.256  1.00  0.00    -0.337 N 
ATOM      9  H   LEU     2      67.562  41.744  44.974  1.00 99.99     0.164 HD
BRANCH   8  10
ATOM     10  CA  LEU     2      65.670  42.625  45.044  1.00  0.00     0.159 C 
BRANCH  10  11
ATOM     11  C   LEU     2      64.828  41.807  46.047  1.00  0.00     0.251 C 
ATOM     12  N   LEU     3      65.318  41.680  47.284  1.00  0.00    -0.338 N 
ATOM     13  H   LEU     3      66.260  41.934  47.486  1.00 99.99     0.164 HD
ATOM     14  O   LEU     2      63.693  41.463  45.729  1.00  0.00    -0.271 OA
BRANCH  12  15
ATOM     15  CA  LEU     3      64.636  40.997  48.409  1.00  0.00     0.159 C 
BRANCH  15  16
ATOM     16  C   LEU     3      63.626  41.802  49.248  1.00  0.00     0.251 C 
ATOM     17  N   LYS     4      62.755  42.592  48.612  1.00  0.00    -0.338 N 
ATOM     18  H   LYS     4      62.783  42.742  47.622  1.00 99.99     0.164 HD
ATOM     19  O   LEU     3      63.619  41.658  50.468  1.00  0.00    -0.271 OA
BRANCH  17  20
ATOM     20  CA  LYS     4      61.693  43.313  49.351  1.00  0.00     0.159 C 
BRANCH  20  21
ATOM     21  C   LYS     4      60.278  42.892  48.892  1.00  0.00     0.251 C 
ATOM     22  N   ARG     5      59.855  43.379  47.725  1.00  0.00    -0.338 N 
ATOM     23  H   ARG     5      60.481  43.858  47.109  1.00 99.99     0.164 HD
ATOM     24  O   LYS     4      59.749  41.922  49.425  1.00  0.00    -0.271 OA
BRANCH  22  25
ATOM     25  CA  ARG     5      58.513  43.141  47.139  1.00  0.00     0.159 C 
BRANCH  25  26
ATOM     26  CB  ARG     5      58.400  41.686  46.671  1.00  0.00     0.034 C 
BRANCH  26  27
ATOM     27  CG  ARG     5      57.542  41.492  45.420  1.00  0.00     0.027 C 
BRANCH  27  28
ATOM     28  CD  ARG     5      58.171  42.191  44.210  1.00  0.00     0.116 C 
BRANCH  28  29
ATOM     29  NE  ARG     5      59.515  41.656  43.911  1.00  0.00    -0.212 N 
ATOM     30  HE  ARG     5      59.551  40.668  43.771  1.00 99.99     0.178 HD
ATOM     31  CZ  ARG     5      60.634  42.370  43.778  1.00  0.00     0.666 C 
ATOM     32  NH1 ARG     5      60.634  43.689  43.929  1.00  0.00    -0.235 N 
ATOM     33  NH2 ARG     5      61.782  41.772  43.495  1.00  0.00    -0.235 N 
ATOM     34 2HH1 ARG     5      59.770  44.141  44.138  1.00 99.99     0.174 HD
ATOM     35 1HH1 ARG     5      61.473  44.216  43.816  1.00 99.99     0.174 HD
ATOM     36 2HH2 ARG     5      61.819  40.784  43.364  1.00 99.99     0.174 HD
ATOM     37 1HH2 ARG     5      62.606  42.324  43.386  1.00 99.99     0.174 HD
ENDBRANCH  28  29
ENDBRANCH  27  28
ENDBRANCH  26  27
ENDBRANCH  25  26
BRANCH  25  38
ATOM     38  C   ARG     5      57.295  43.452  48.042  1.00  0.00     0.251 C 
ATOM     39  N   ILE     6      56.786  42.410  48.696  1.00  0.00    -0.338 N 
ATOM     40  H   ILE     6      56.992  41.481  48.398  1.00 99.99     0.164 HD
ATOM     41  O   ARG     5      56.696  44.520  47.934  1.00  0.00    -0.271 OA
BRANCH  39  42
ATOM     42  CA  ILE     6      55.739  42.504  49.741  1.00  0.00     0.159 C 
BRANCH  42  43
ATOM     43  C   ILE     6      56.363  42.880  51.110  1.00  0.00     0.251 C 
ATOM     44  N   LYS     7      57.343  42.091  51.553  1.00  0.00    -0.338 N 
ATOM     45  H   LYS     7      57.622  41.280  51.043  1.00 99.99     0.164 HD
ATOM     46  O   ILE     6      55.932  43.832  51.760  1.00  0.00    -0.271 OA
BRANCH  44  47
ATOM     47  CA  LYS     7      58.091  42.290  52.816  1.00  0.00     0.159 C 
BRANCH  47  48
ATOM     48  C   LYS     7      59.620  42.143  52.682  1.00  0.00     0.251 C 
ATOM     49  O   LYS     7      60.335  43.142  52.642  1.00  0.00    -0.271 OA
ATOM     50  N   THR     8      60.100  40.930  52.944  1.00  0.00    -0.335 N 
ATOM     51  H   THR     8      59.578  40.287  53.513  1.00 99.99     0.164 HD
BRANCH  50  52
ATOM     52  CA  THR     8      61.444  40.449  52.548  1.00  0.00     0.195 C 
BRANCH  52  53
ATOM     53  CB  THR     8      62.231  39.921  53.764  1.00  0.00     0.141 C 
ATOM     54  CG2 THR     8      62.233  40.903  54.943  1.00  0.00     0.034 C 
BRANCH  53  55
ATOM     55  OG1 THR     8      61.704  38.666  54.201  1.00  0.00    -0.382 OA
ATOM     56  HG1 THR     8      62.458  38.028  54.366  1.00 99.99     0.210 HD
ENDBRANCH  53  55
ENDBRANCH  52  53
BRANCH  52  57
ATOM     57  C   THR     8      61.228  39.265  51.592  1.00  0.00     0.209 C 
ATOM     58  OXT THR     8      60.038  38.910  51.440  1.00 99.99    -0.646 OA
ATOM     59  O   THR     8      62.233  38.726  51.080  1.00 99.99    -0.646 OA
ENDBRANCH  52  57
ENDBRANCH  50  52
ENDBRANCH  47  48
BRANCH  47  60
ATOM     60  CB  LYS     7      57.596  41.303  53.872  1.00  0.00     0.032 C 
BRANCH  60  61
ATOM     61  CG  LYS     7      56.529  40.346  53.342  1.00  0.00     0.004 C 
BRANCH  61  62
ATOM     62  CD  LYS     7      55.240  40.585  54.122  1.00  0.00     0.032 C 
BRANCH  62  63
ATOM     63  CE  LYS     7      54.279  39.403  54.005  1.00  0.00     0.206 C 
BRANCH  63  64
ATOM     64  NZ  LYS     7      53.442  39.568  52.811  1.00  0.00    -0.064 N 
ATOM     65  HZ1 LYS     7      52.551  39.144  52.966  1.00 99.99     0.275 HD
ATOM     66  HZ2 LYS     7      53.327  40.542  52.615  1.00 99.99     0.275 HD
ATOM     67  HZ3 LYS     7      53.892  39.126  52.035  1.00 99.99     0.275 HD
ENDBRANCH  63  64
ENDBRANCH  62  63
ENDBRANCH  61  62
ENDBRANCH  60  61
ENDBRANCH  47  60
ENDBRANCH  44  47
ENDBRANCH  42  43
BRANCH  42  68
ATOM     68  CB  ILE     6      54.939  41.177  49.806  1.00  0.00     0.029 C 
ATOM     69  CG2 ILE     6      53.423  41.431  49.720  1.00  0.00     0.002 C 
BRANCH  68  70
ATOM     70  CG1 ILE     6      55.371  40.212  48.684  1.00  0.00     0.002 C 
ATOM     71  CD  ILE     6      54.437  40.188  47.465  1.00  0.00     0.000 C 
ENDBRANCH  68  70
ENDBRANCH  42  68
ENDBRANCH  39  42
ENDBRANCH  25  38
ENDBRANCH  22  25
ENDBRANCH  20  21
BRANCH  20  72
ATOM     72  CB  LYS     4      61.884  44.838  49.308  1.00  0.00     0.032 C 
BRANCH  72  73
ATOM     73  CG  LYS     4      63.342  45.188  48.975  1.00  0.00     0.004 C 
BRANCH  73  74
ATOM     74  CD  LYS     4      64.117  45.836  50.128  1.00  0.00     0.032 C 
BRANCH  74  75
ATOM     75  CE  LYS     4      65.582  46.027  49.719  1.00  0.00     0.206 C 
BRANCH  75  76
ATOM     76  NZ  LYS     4      65.862  47.369  49.177  1.00  0.00    -0.064 N 
ATOM     77  HZ3 LYS     4      65.146  47.634  48.532  1.00 99.99     0.275 HD
ATOM     78  HZ2 LYS     4      66.748  47.368  48.714  1.00 99.99     0.275 HD
ATOM     79  HZ1 LYS     4      65.889  48.029  49.928  1.00 99.99     0.275 HD
ENDBRANCH  75  76
ENDBRANCH  74  75
ENDBRANCH  73  74
ENDBRANCH  72  73
ENDBRANCH  20  72
ENDBRANCH  17  20
ENDBRANCH  15  16
BRANCH  15  80
ATOM     80  CB  LEU     3      65.681  40.382  49.351  1.00  0.00     0.032 C 
BRANCH  80  81
ATOM     81  CG  LEU     3      66.093  38.956  48.969  1.00  0.00     0.002 C 
ATOM     82  CD1 LEU     3      66.833  38.310  50.142  1.00  0.00     0.000 C 
ATOM     83  CD2 LEU     3      64.876  38.099  48.598  1.00  0.00     0.000 C 
ENDBRANCH  80  81
ENDBRANCH  15  80
ENDBRANCH  12  15
ENDBRANCH  10  11
BRANCH  10  84
ATOM     84  CB  LEU     2      65.418  42.200  43.589  1.00  0.00     0.032 C 
BRANCH  84  85
ATOM     85  CG  LEU     2      66.479  41.275  42.979  1.00  0.00     0.002 C 
ATOM     86  CD1 LEU     2      66.100  39.796  43.119  1.00  0.00     0.000 C 
ATOM     87  CD2 LEU     2      66.676  41.632  41.505  1.00  0.00     0.000 C 
ENDBRANCH  84  85
ENDBRANCH  10  84
ENDBRANCH   8  10
ENDBRANCH   5   6
ENDBRANCH   1   5
TORSDOF 38
ENDMDL
MODEL 6
REMARK VINA RESULT:      -4.0      1.548      2.109
REMARK WARNING: 32 MAX_TORS EXCEEDED!!!
REMARK  38 active torsions:
REMARK  status: ('A' for Active; 'I' for Inactive)
REMARK    1  A    between atoms: N_1  and  CA_2 
REMARK    2  A    between atoms: CA_2  and  C_3 
REMARK       I    between atoms: C_3  and  N_8 
REMARK    3  A    between atoms: N_8  and  CA_9 
REMARK    4  A    between atoms: CA_9  and  C_10 
REMARK    5  A    between atoms: CA_9  and  CB_12 
REMARK       I    between atoms: C_10  and  N_17 
REMARK    6  A    between atoms: CB_12  and  CG_13 
REMARK    7  A    between atoms: N_17  and  CA_18 
REMARK    8  A    between atoms: CA_18  and  C_19 
REMARK    9  A    between atoms: CA_18  and  CB_21 
REMARK       I    between atoms: C_19  and  N_26 
REMARK   10  A    between atoms: CB_21  and  CG_22 
REMARK   11  A    between atoms: N_26  and  CA_27 
REMARK   12  A    between atoms: CA_27  and  C_28 
REMARK   13  A    between atoms: CA_27  and  CB_30 
REMARK       I    between atoms: C_28  and  N_39 
REMARK   14  A    between atoms: CB_30  and  CG_31 
REMARK   15  A    between atoms: CG_31  and  CD_32 
REMARK   16  A    between atoms: CD_32  and  CE_33 
REMARK   17  A    between atoms: CE_33  and  NZ_34 
REMARK   18  A    between atoms: N_39  and  CA_40 
REMARK   19  A    between atoms: CA_40  and  CB_43 
REMARK   20  A    between atoms: CA_40  and  C_41 
REMARK       I    between atoms: C_41  and  N_56 
REMARK   21  A    between atoms: CB_43  and  CG_44 
REMARK   22  A    between atoms: CG_44  and  CD_45 
REMARK   23  A    between atoms: CD_45  and  NE_46 
REMARK       I    between atoms: NE_46  and  CZ_47 
REMARK       I    between atoms: CZ_47  and  NH1_48 
REMARK   24  A    between atoms: N_56  and  CA_57 
REMARK   25  A    between atoms: CA_57  and  C_58 
REMARK   26  A    between atoms: CA_57  and  CB_60 
REMARK       I    between atoms: C_58  and  N_65 
REMARK   27  A    between atoms: CB_60  and  CG1_61 
REMARK   28  A    between atoms: N_65  and  CA_66 
REMARK   29  A    between atoms: CA_66  and  C_67 
REMARK   30  A    between atoms: CA_66  and  CB_69 
REMARK       I    between atoms: C_67  and  N_78 
REMARK   31  A    between atoms: CB_69  and  CG_70 
REMARK   32  A    between atoms: CG_70  and  CD_71 
REMARK   33  A    between atoms: CD_71  and  CE_72 
REMARK   34  A    between atoms: CE_72  and  NZ_73 
REMARK   35  A    between atoms: N_78  and  CA_79 
REMARK   36  A    between atoms: CA_79  and  CB_82 
REMARK   37  A    between atoms: CA_79  and  C_80 
REMARK   38  A    between atoms: CB_82  and  OG1_83 
ROOT
ATOM      1  N   GLY     1      61.206  42.030  50.910  1.00  0.00    -0.055 N 
ATOM      2  H1  GLY     1      60.708  42.688  50.344  1.00 99.99     0.276 HD
ATOM      3  H2  GLY     1      61.115  41.119  50.539  1.00 99.99     0.276 HD
ATOM      4  H3  GLY     1      60.781  41.988  51.803  1.00 99.99     0.276 HD
ENDROOT
BRANCH   1   5
ATOM      5  CA  GLY     1      62.620  42.445  50.996  1.00  0.00     0.292 C 
BRANCH   5   6
ATOM      6  C   GLY     1      62.962  43.532  49.953  1.00  0.00     0.261 C 
ATOM      7  O   GLY     1      62.057  44.209  49.460  1.00  0.00    -0.270 OA
ATOM      8  N   LEU     2      64.167  43.399  49.394  1.00  0.00    -0.337 N 
ATOM      9  H   LEU     2      64.761  42.634  49.634  1.00 99.99     0.164 HD
BRANCH   8  10
ATOM     10  CA  LEU     2      64.792  44.354  48.451  1.00  0.00     0.159 C 
BRANCH  10  11
ATOM     11  C   LEU     2      65.153  43.791  47.059  1.00  0.00     0.251 C 
ATOM     12  N   LEU     3      64.844  42.512  46.826  1.00  0.00    -0.338 N 
ATOM     13  H   LEU     3      64.577  41.910  47.574  1.00 99.99     0.164 HD
ATOM     14  O   LEU     2      65.537  44.565  46.186  1.00  0.00    -0.271 OA
BRANCH  12  15
ATOM     15  CA  LEU     3      65.042  41.804  45.539  1.00  0.00     0.159 C 
BRANCH  15  16
ATOM     16  C   LEU     3      63.905  40.903  45.018  1.00  0.00     0.251 C 
ATOM     17  N   LYS     4      63.458  39.922  45.807  1.00  0.00    -0.338 N 
ATOM     18  H   LYS     4      63.881  39.699  46.687  1.00 99.99     0.164 HD
ATOM     19  O   LEU     3      63.415  41.145  43.918  1.00  0.00    -0.271 OA
BRANCH  17  20
ATOM     20  CA  LYS     4      62.300  39.087  45.409  1.00  0.00     0.159 C 
BRANCH  20  21
ATOM     21  C   LYS     4      60.960  39.689  45.888  1.00  0.00     0.251 C 
ATOM     22  N   ARG     5      60.362  40.554  45.069  1.00  0.00    -0.338 N 
ATOM     23  H   ARG     5      60.684  40.682  44.129  1.00 99.99     0.164 HD
ATOM     24  O   LYS     4      60.360  39.138  46.806  1.00  0.00    -0.271 OA
BRANCH  22  25
ATOM     25  CA  ARG     5      59.104  41.281  45.368  1.00  0.00     0.159 C 
BRANCH  25  26
ATOM     26  CB  ARG     5      59.168  42.697  44.785  1.00  0.00     0.034 C 
BRANCH  26  27
ATOM     27  CG  ARG     5      60.456  43.004  44.019  1.00  0.00     0.027 C 
BRANCH  27  28
ATOM     28  CD  ARG     5      60.149  43.426  42.578  1.00  0.00     0.116 C 
BRANCH  28  29
ATOM     29  NE  ARG     5      58.895  42.817  42.089  1.00  0.00    -0.212 N 
ATOM     30  HE  ARG     5      58.067  43.137  42.547  1.00 99.99     0.178 HD
ATOM     31  CZ  ARG     5      58.783  41.938  41.092  1.00  0.00     0.666 C 
ATOM     32  NH1 ARG     5      59.851  41.501  40.435  1.00  0.00    -0.235 N 
ATOM     33  NH2 ARG     5      57.595  41.473  40.737  1.00  0.00    -0.235 N 
ATOM     34 2HH1 ARG     5      60.746  41.853  40.698  1.00 99.99     0.174 HD
ATOM     35 1HH1 ARG     5      59.758  40.852  39.683  1.00 99.99     0.174 HD
ATOM     36 2HH2 ARG     5      56.769  41.786  41.201  1.00 99.99     0.174 HD
ATOM     37 1HH2 ARG     5      57.530  40.825  39.980  1.00 99.99     0.174 HD
ENDBRANCH  28  29
ENDBRANCH  27  28
ENDBRANCH  26  27
ENDBRANCH  25  26
BRANCH  25  38
ATOM     38  C   ARG     5      57.789  40.622  44.887  1.00  0.00     0.251 C 
ATOM     39  N   ILE     6      57.366  39.589  45.612  1.00  0.00    -0.338 N 
ATOM     40  H   ILE     6      57.995  39.115  46.223  1.00 99.99     0.164 HD
ATOM     41  O   ARG     5      57.339  40.871  43.770  1.00  0.00    -0.271 OA
BRANCH  39  42
ATOM     42  CA  ILE     6      56.053  38.923  45.442  1.00  0.00     0.159 C 
BRANCH  42  43
ATOM     43  C   ILE     6      54.932  39.733  46.144  1.00  0.00     0.251 C 
ATOM     44  N   LYS     7      54.684  39.423  47.418  1.00  0.00    -0.338 N 
ATOM     45  H   LYS     7      55.171  38.679  47.872  1.00 99.99     0.164 HD
ATOM     46  O   ILE     6      54.286  40.579  45.529  1.00  0.00    -0.271 OA
BRANCH  44  47
ATOM     47  CA  LYS     7      53.680  40.092  48.277  1.00  0.00     0.159 C 
BRANCH  47  48
ATOM     48  C   LYS     7      54.210  41.326  49.035  1.00  0.00     0.251 C 
ATOM     49  O   LYS     7      53.439  42.029  49.684  1.00  0.00    -0.271 OA
ATOM     50  N   THR     8      55.529  41.369  49.200  1.00  0.00    -0.335 N 
ATOM     51  H   THR     8      56.075  40.526  49.161  1.00 99.99     0.164 HD
BRANCH  50  52
ATOM     52  CA  THR     8      56.297  42.583  49.561  1.00  0.00     0.195 C 
BRANCH  52  53
ATOM     53  CB  THR     8      57.713  42.225  50.055  1.00  0.00     0.141 C 
ATOM     54  CG2 THR     8      57.899  40.720  50.284  1.00  0.00     0.034 C 
BRANCH  53  55
ATOM     55  OG1 THR     8      58.702  42.683  49.130  1.00  0.00    -0.382 OA
ATOM     56  HG1 THR     8      59.573  42.809  49.609  1.00 99.99     0.210 HD
ENDBRANCH  53  55
ENDBRANCH  52  53
BRANCH  52  57
ATOM     57  C   THR     8      56.456  43.407  48.272  1.00  0.00     0.209 C 
ATOM     58  OXT THR     8      56.552  42.739  47.219  1.00 99.99    -0.646 OA
ATOM     59  O   THR     8      56.519  44.651  48.369  1.00 99.99    -0.646 OA
ENDBRANCH  52  57
ENDBRANCH  50  52
ENDBRANCH  47  48
BRANCH  47  60
ATOM     60  CB  LYS     7      53.122  39.097  49.292  1.00  0.00     0.032 C 
BRANCH  60  61
ATOM     61  CG  LYS     7      51.595  39.111  49.366  1.00  0.00     0.004 C 
BRANCH  61  62
ATOM     62  CD  LYS     7      51.188  39.562  50.766  1.00  0.00     0.032 C 
BRANCH  62  63
ATOM     63  CE  LYS     7      52.057  38.918  51.844  1.00  0.00     0.206 C 
BRANCH  63  64
ATOM     64  NZ  LYS     7      51.500  37.611  52.208  1.00  0.00    -0.064 N 
ATOM     65  HZ1 LYS     7      50.760  37.734  52.869  1.00 99.99     0.275 HD
ATOM     66  HZ2 LYS     7      51.152  37.155  51.389  1.00 99.99     0.275 HD
ATOM     67  HZ3 LYS     7      52.222  37.051  52.616  1.00 99.99     0.275 HD
ENDBRANCH  63  64
ENDBRANCH  62  63
ENDBRANCH  61  62
ENDBRANCH  60  61
ENDBRANCH  47  60
ENDBRANCH  44  47
ENDBRANCH  42  43
BRANCH  42  68
ATOM     68  CB  ILE     6      56.133  37.463  45.958  1.00  0.00     0.029 C 
ATOM     69  CG2 ILE     6      55.924  36.452  44.815  1.00  0.00     0.002 C 
BRANCH  68  70
ATOM     70  CG1 ILE     6      57.481  37.192  46.655  1.00  0.00     0.002 C 
ATOM     71  CD  ILE     6      57.402  37.094  48.186  1.00  0.00     0.000 C 
ENDBRANCH  68  70
ENDBRANCH  42  68
ENDBRANCH  39  42
ENDBRANCH  25  38
ENDBRANCH  22  25
ENDBRANCH  20  21
BRANCH  20  72
ATOM     72  CB  LYS     4      62.463  37.621  45.843  1.00  0.00     0.032 C 
BRANCH  72  73
ATOM     73  CG  LYS     4      63.592  37.487  46.876  1.00  0.00     0.004 C 
BRANCH  73  74
ATOM     74  CD  LYS     4      63.114  37.193  48.302  1.00  0.00     0.032 C 
BRANCH  74  75
ATOM     75  CE  LYS     4      63.020  38.503  49.093  1.00  0.00     0.206 C 
BRANCH  75  76
ATOM     76  NZ  LYS     4      61.653  38.808  49.550  1.00  0.00    -0.064 N 
ATOM     77  HZ3 LYS     4      61.496  39.796  49.528  1.00 99.99     0.275 HD
ATOM     78  HZ2 LYS     4      61.523  38.468  50.481  1.00 99.99     0.275 HD
ATOM     79  HZ1 LYS     4      60.995  38.358  48.945  1.00 99.99     0.275 HD
ENDBRANCH  75  76
ENDBRANCH  74  75
ENDBRANCH  73  74
ENDBRANCH  72  73
ENDBRANCH  20  72
ENDBRANCH  17  20
ENDBRANCH  15  16
BRANCH  15  80
ATOM     80  CB  LEU     3      66.337  40.981  45.594  1.00  0.00     0.032 C 
BRANCH  80  81
ATOM     81  CG  LEU     3      66.790  40.636  47.018  1.00  0.00     0.002 C 
ATOM     82  CD1 LEU     3      66.877  39.116  47.168  1.00  0.00     0.000 C 
ATOM     83  CD2 LEU     3      68.153  41.260  47.341  1.00  0.00     0.000 C 
ENDBRANCH  80  81
ENDBRANCH  15  80
ENDBRANCH  12  15
ENDBRANCH  10  11
BRANCH  10  84
ATOM     84  CB  LEU     2      66.008  44.963  49.166  1.00  0.00     0.032 C 
BRANCH  84  85
ATOM     85  CG  LEU     2      65.796  46.365  49.750  1.00  0.00     0.002 C 
ATOM     86  CD1 LEU     2      66.906  47.335  49.330  1.00  0.00     0.000 C 
ATOM     87  CD2 LEU     2      64.433  46.898  49.307  1.00  0.00     0.000 C 
ENDBRANCH  84  85
ENDBRANCH  10  84
ENDBRANCH   8  10
ENDBRANCH   5   6
ENDBRANCH   1   5
TORSDOF 38
ENDMDL
MODEL 7
REMARK VINA RESULT:      -4.0      2.722      7.351
REMARK WARNING: 32 MAX_TORS EXCEEDED!!!
REMARK  38 active torsions:
REMARK  status: ('A' for Active; 'I' for Inactive)
REMARK    1  A    between atoms: N_1  and  CA_2 
REMARK    2  A    between atoms: CA_2  and  C_3 
REMARK       I    between atoms: C_3  and  N_8 
REMARK    3  A    between atoms: N_8  and  CA_9 
REMARK    4  A    between atoms: CA_9  and  C_10 
REMARK    5  A    between atoms: CA_9  and  CB_12 
REMARK       I    between atoms: C_10  and  N_17 
REMARK    6  A    between atoms: CB_12  and  CG_13 
REMARK    7  A    between atoms: N_17  and  CA_18 
REMARK    8  A    between atoms: CA_18  and  C_19 
REMARK    9  A    between atoms: CA_18  and  CB_21 
REMARK       I    between atoms: C_19  and  N_26 
REMARK   10  A    between atoms: CB_21  and  CG_22 
REMARK   11  A    between atoms: N_26  and  CA_27 
REMARK   12  A    between atoms: CA_27  and  C_28 
REMARK   13  A    between atoms: CA_27  and  CB_30 
REMARK       I    between atoms: C_28  and  N_39 
REMARK   14  A    between atoms: CB_30  and  CG_31 
REMARK   15  A    between atoms: CG_31  and  CD_32 
REMARK   16  A    between atoms: CD_32  and  CE_33 
REMARK   17  A    between atoms: CE_33  and  NZ_34 
REMARK   18  A    between atoms: N_39  and  CA_40 
REMARK   19  A    between atoms: CA_40  and  CB_43 
REMARK   20  A    between atoms: CA_40  and  C_41 
REMARK       I    between atoms: C_41  and  N_56 
REMARK   21  A    between atoms: CB_43  and  CG_44 
REMARK   22  A    between atoms: CG_44  and  CD_45 
REMARK   23  A    between atoms: CD_45  and  NE_46 
REMARK       I    between atoms: NE_46  and  CZ_47 
REMARK       I    between atoms: CZ_47  and  NH1_48 
REMARK   24  A    between atoms: N_56  and  CA_57 
REMARK   25  A    between atoms: CA_57  and  C_58 
REMARK   26  A    between atoms: CA_57  and  CB_60 
REMARK       I    between atoms: C_58  and  N_65 
REMARK   27  A    between atoms: CB_60  and  CG1_61 
REMARK   28  A    between atoms: N_65  and  CA_66 
REMARK   29  A    between atoms: CA_66  and  C_67 
REMARK   30  A    between atoms: CA_66  and  CB_69 
REMARK       I    between atoms: C_67  and  N_78 
REMARK   31  A    between atoms: CB_69  and  CG_70 
REMARK   32  A    between atoms: CG_70  and  CD_71 
REMARK   33  A    between atoms: CD_71  and  CE_72 
REMARK   34  A    between atoms: CE_72  and  NZ_73 
REMARK   35  A    between atoms: N_78  and  CA_79 
REMARK   36  A    between atoms: CA_79  and  CB_82 
REMARK   37  A    between atoms: CA_79  and  C_80 
REMARK   38  A    between atoms: CB_82  and  OG1_83 
ROOT
ATOM      1  N   GLY     1      61.057  43.233  42.617  1.00  0.00    -0.055 N 
ATOM      2  H1  GLY     1      60.426  42.926  41.902  1.00 99.99     0.276 HD
ATOM      3  H2  GLY     1      61.529  44.051  42.330  1.00 99.99     0.276 HD
ATOM      4  H3  GLY     1      61.767  42.552  42.732  1.00 99.99     0.276 HD
ENDROOT
BRANCH   1   5
ATOM      5  CA  GLY     1      60.298  43.449  43.864  1.00  0.00     0.292 C 
BRANCH   5   6
ATOM      6  C   GLY     1      60.874  42.625  45.036  1.00  0.00     0.261 C 
ATOM      7  O   GLY     1      61.755  43.112  45.747  1.00  0.00    -0.270 OA
ATOM      8  N   LEU     2      60.637  41.313  44.956  1.00  0.00    -0.337 N 
ATOM      9  H   LEU     2      60.147  40.929  44.176  1.00 99.99     0.164 HD
BRANCH   8  10
ATOM     10  CA  LEU     2      60.977  40.309  45.989  1.00  0.00     0.159 C 
BRANCH  10  11
ATOM     11  C   LEU     2      62.380  39.675  45.880  1.00  0.00     0.251 C 
ATOM     12  N   LEU     3      63.230  40.234  45.014  1.00  0.00    -0.338 N 
ATOM     13  H   LEU     3      62.908  40.896  44.342  1.00 99.99     0.164 HD
ATOM     14  O   LEU     2      62.710  38.817  46.695  1.00  0.00    -0.271 OA
BRANCH  12  15
ATOM     15  CA  LEU     3      64.639  39.822  44.808  1.00  0.00     0.159 C 
BRANCH  15  16
ATOM     16  C   LEU     3      65.729  40.497  45.663  1.00  0.00     0.251 C 
ATOM     17  N   LYS     4      65.686  41.824  45.819  1.00  0.00    -0.338 N 
ATOM     18  H   LYS     4      65.024  42.404  45.342  1.00 99.99     0.164 HD
ATOM     19  O   LEU     3      66.573  39.792  46.211  1.00  0.00    -0.271 OA
BRANCH  17  20
ATOM     20  CA  LYS     4      66.643  42.521  46.710  1.00  0.00     0.159 C 
BRANCH  20  21
ATOM     21  C   LYS     4      65.976  42.992  48.022  1.00  0.00     0.251 C 
ATOM     22  N   ARG     5      64.670  42.756  48.151  1.00  0.00    -0.338 N 
ATOM     23  H   ARG     5      64.186  42.164  47.504  1.00 99.99     0.164 HD
ATOM     24  O   LYS     4      66.688  43.260  48.983  1.00  0.00    -0.271 OA
BRANCH  22  25
ATOM     25  CA  ARG     5      63.838  43.178  49.305  1.00  0.00     0.159 C 
BRANCH  25  26
ATOM     26  CB  ARG     5      62.830  44.243  48.858  1.00  0.00     0.034 C 
BRANCH  26  27
ATOM     27  CG  ARG     5      62.565  45.334  49.896  1.00  0.00     0.027 C 
BRANCH  27  28
ATOM     28  CD  ARG     5      63.290  46.632  49.525  1.00  0.00     0.116 C 
BRANCH  28  29
ATOM     29  NE  ARG     5      64.590  46.746  50.218  1.00  0.00    -0.212 N 
ATOM     30  HE  ARG     5      64.527  46.952  51.193  1.00 99.99     0.178 HD
ATOM     31  CZ  ARG     5      65.792  46.563  49.671  1.00  0.00     0.666 C 
ATOM     32  NH1 ARG     5      65.927  46.264  48.385  1.00  0.00    -0.235 N 
ATOM     33  NH2 ARG     5      66.889  46.682  50.405  1.00  0.00    -0.235 N 
ATOM     34 2HH1 ARG     5      65.103  46.169  47.832  1.00 99.99     0.174 HD
ATOM     35 1HH1 ARG     5      66.830  46.117  47.987  1.00 99.99     0.174 HD
ATOM     36 2HH2 ARG     5      66.827  46.896  51.378  1.00 99.99     0.174 HD
ATOM     37 1HH2 ARG     5      67.779  46.529  49.982  1.00 99.99     0.174 HD
ENDBRANCH  28  29
ENDBRANCH  27  28
ENDBRANCH  26  27
ENDBRANCH  25  26
BRANCH  25  38
ATOM     38  C   ARG     5      63.063  42.064  50.048  1.00  0.00     0.251 C 
ATOM     39  N   ILE     6      63.139  42.101  51.376  1.00  0.00    -0.338 N 
ATOM     40  H   ILE     6      63.864  42.620  51.822  1.00 99.99     0.164 HD
ATOM     41  O   ARG     5      62.649  41.080  49.438  1.00  0.00    -0.271 OA
BRANCH  39  42
ATOM     42  CA  ILE     6      62.343  41.247  52.289  1.00  0.00     0.159 C 
BRANCH  42  43
ATOM     43  C   ILE     6      60.848  41.659  52.259  1.00  0.00     0.251 C 
ATOM     44  N   LYS     7      59.975  40.706  51.927  1.00  0.00    -0.338 N 
ATOM     45  H   LYS     7      60.283  39.791  51.672  1.00 99.99     0.164 HD
ATOM     46  O   ILE     6      60.509  42.819  52.487  1.00  0.00    -0.271 OA
BRANCH  44  47
ATOM     47  CA  LYS     7      58.506  40.879  51.868  1.00  0.00     0.159 C 
BRANCH  47  48
ATOM     48  C   LYS     7      57.985  41.473  50.543  1.00  0.00     0.251 C 
ATOM     49  O   LYS     7      58.775  41.795  49.659  1.00  0.00    -0.271 OA
ATOM     50  N   THR     8      56.686  41.299  50.314  1.00  0.00    -0.335 N 
ATOM     51  H   THR     8      56.183  40.557  50.769  1.00 99.99     0.164 HD
BRANCH  50  52
ATOM     52  CA  THR     8      55.893  42.062  49.323  1.00  0.00     0.195 C 
BRANCH  52  53
ATOM     53  CB  THR     8      54.463  41.499  49.195  1.00  0.00     0.141 C 
ATOM     54  CG2 THR     8      54.114  40.506  50.311  1.00  0.00     0.034 C 
BRANCH  53  55
ATOM     55  OG1 THR     8      53.502  42.557  49.193  1.00  0.00    -0.382 OA
ATOM     56  HG1 THR     8      53.574  43.075  50.047  1.00 99.99     0.210 HD
ENDBRANCH  53  55
ENDBRANCH  52  53
BRANCH  52  57
ATOM     57  C   THR     8      55.774  43.498  49.862  1.00  0.00     0.209 C 
ATOM     58  OXT THR     8      55.932  44.403  49.012  1.00 99.99    -0.646 OA
ATOM     59  O   THR     8      55.576  43.657  51.085  1.00 99.99    -0.646 OA
ENDBRANCH  52  57
ENDBRANCH  50  52
ENDBRANCH  47  48
BRANCH  47  60
ATOM     60  CB  LYS     7      58.043  41.770  53.019  1.00  0.00     0.032 C 
BRANCH  60  61
ATOM     61  CG  LYS     7      57.870  41.009  54.332  1.00  0.00     0.004 C 
BRANCH  61  62
ATOM     62  CD  LYS     7      56.956  39.813  54.076  1.00  0.00     0.032 C 
BRANCH  62  63
ATOM     63  CE  LYS     7      55.598  39.983  54.753  1.00  0.00     0.206 C 
BRANCH  63  64
ATOM     64  NZ  LYS     7      54.710  40.762  53.882  1.00  0.00    -0.064 N 
ATOM     65  HZ1 LYS     7      55.158  40.923  53.004  1.00 99.99     0.275 HD
ATOM     66  HZ2 LYS     7      53.855  40.261  53.742  1.00 99.99     0.275 HD
ATOM     67  HZ3 LYS     7      54.510  41.638  54.322  1.00 99.99     0.275 HD
ENDBRANCH  63  64
ENDBRANCH  62  63
ENDBRANCH  61  62
ENDBRANCH  60  61
ENDBRANCH  47  60
ENDBRANCH  44  47
ENDBRANCH  42  43
BRANCH  42  68
ATOM     68  CB  ILE     6      62.939  41.305  53.719  1.00  0.00     0.029 C 
ATOM     69  CG2 ILE     6      61.881  40.955  54.782  1.00  0.00     0.002 C 
BRANCH  68  70
ATOM     70  CG1 ILE     6      64.148  40.359  53.856  1.00  0.00     0.002 C 
ATOM     71  CD  ILE     6      64.985  40.569  55.128  1.00  0.00     0.000 C 
ENDBRANCH  68  70
ENDBRANCH  42  68
ENDBRANCH  39  42
ENDBRANCH  25  38
ENDBRANCH  22  25
ENDBRANCH  20  21
BRANCH  20  72
ATOM     72  CB  LYS     4      67.379  43.665  45.993  1.00  0.00     0.032 C 
BRANCH  72  73
ATOM     73  CG  LYS     4      68.859  43.310  45.791  1.00  0.00     0.004 C 
BRANCH  73  74
ATOM     74  CD  LYS     4      69.266  41.944  46.355  1.00  0.00     0.032 C 
BRANCH  74  75
ATOM     75  CE  LYS     4      70.794  41.860  46.447  1.00  0.00     0.206 C 
BRANCH  75  76
ATOM     76  NZ  LYS     4      71.398  43.016  47.131  1.00  0.00    -0.064 N 
ATOM     77  HZ3 LYS     4      71.208  42.972  48.112  1.00 99.99     0.275 HD
ATOM     78  HZ2 LYS     4      71.026  43.864  46.754  1.00 99.99     0.275 HD
ATOM     79  HZ1 LYS     4      72.388  43.004  46.988  1.00 99.99     0.275 HD
ENDBRANCH  75  76
ENDBRANCH  74  75
ENDBRANCH  73  74
ENDBRANCH  72  73
ENDBRANCH  20  72
ENDBRANCH  17  20
ENDBRANCH  15  16
BRANCH  15  80
ATOM     80  CB  LEU     3      65.012  39.971  43.326  1.00  0.00     0.032 C 
BRANCH  80  81
ATOM     81  CG  LEU     3      64.073  40.895  42.542  1.00  0.00     0.002 C 
ATOM     82  CD1 LEU     3      64.833  42.154  42.123  1.00  0.00     0.000 C 
ATOM     83  CD2 LEU     3      63.511  40.199  41.297  1.00  0.00     0.000 C 
ENDBRANCH  80  81
ENDBRANCH  15  80
ENDBRANCH  12  15
ENDBRANCH  10  11
BRANCH  10  84
ATOM     84  CB  LEU     2      59.859  39.255  45.979  1.00  0.00     0.032 C 
BRANCH  84  85
ATOM     85  CG  LEU     2      58.440  39.796  46.198  1.00  0.00     0.002 C 
ATOM     86  CD1 LEU     2      57.539  39.551  44.982  1.00  0.00     0.000 C 
ATOM     87  CD2 LEU     2      57.836  39.145  47.442  1.00  0.00     0.000 C 
ENDBRANCH  84  85
ENDBRANCH  10  84
ENDBRANCH   8  10
ENDBRANCH   5   6
ENDBRANCH   1   5
TORSDOF 38
ENDMDL
MODEL 8
REMARK VINA RESULT:      -3.9      2.130      5.248
REMARK WARNING: 32 MAX_TORS EXCEEDED!!!
REMARK  38 active torsions:
REMARK  status: ('A' for Active; 'I' for Inactive)
REMARK    1  A    between atoms: N_1  and  CA_2 
REMARK    2  A    between atoms: CA_2  and  C_3 
REMARK       I    between atoms: C_3  and  N_8 
REMARK    3  A    between atoms: N_8  and  CA_9 
REMARK    4  A    between atoms: CA_9  and  C_10 
REMARK    5  A    between atoms: CA_9  and  CB_12 
REMARK       I    between atoms: C_10  and  N_17 
REMARK    6  A    between atoms: CB_12  and  CG_13 
REMARK    7  A    between atoms: N_17  and  CA_18 
REMARK    8  A    between atoms: CA_18  and  C_19 
REMARK    9  A    between atoms: CA_18  and  CB_21 
REMARK       I    between atoms: C_19  and  N_26 
REMARK   10  A    between atoms: CB_21  and  CG_22 
REMARK   11  A    between atoms: N_26  and  CA_27 
REMARK   12  A    between atoms: CA_27  and  C_28 
REMARK   13  A    between atoms: CA_27  and  CB_30 
REMARK       I    between atoms: C_28  and  N_39 
REMARK   14  A    between atoms: CB_30  and  CG_31 
REMARK   15  A    between atoms: CG_31  and  CD_32 
REMARK   16  A    between atoms: CD_32  and  CE_33 
REMARK   17  A    between atoms: CE_33  and  NZ_34 
REMARK   18  A    between atoms: N_39  and  CA_40 
REMARK   19  A    between atoms: CA_40  and  CB_43 
REMARK   20  A    between atoms: CA_40  and  C_41 
REMARK       I    between atoms: C_41  and  N_56 
REMARK   21  A    between atoms: CB_43  and  CG_44 
REMARK   22  A    between atoms: CG_44  and  CD_45 
REMARK   23  A    between atoms: CD_45  and  NE_46 
REMARK       I    between atoms: NE_46  and  CZ_47 
REMARK       I    between atoms: CZ_47  and  NH1_48 
REMARK   24  A    between atoms: N_56  and  CA_57 
REMARK   25  A    between atoms: CA_57  and  C_58 
REMARK   26  A    between atoms: CA_57  and  CB_60 
REMARK       I    between atoms: C_58  and  N_65 
REMARK   27  A    between atoms: CB_60  and  CG1_61 
REMARK   28  A    between atoms: N_65  and  CA_66 
REMARK   29  A    between atoms: CA_66  and  C_67 
REMARK   30  A    between atoms: CA_66  and  CB_69 
REMARK       I    between atoms: C_67  and  N_78 
REMARK   31  A    between atoms: CB_69  and  CG_70 
REMARK   32  A    between atoms: CG_70  and  CD_71 
REMARK   33  A    between atoms: CD_71  and  CE_72 
REMARK   34  A    between atoms: CE_72  and  NZ_73 
REMARK   35  A    between atoms: N_78  and  CA_79 
REMARK   36  A    between atoms: CA_79  and  CB_82 
REMARK   37  A    between atoms: CA_79  and  C_80 
REMARK   38  A    between atoms: CB_82  and  OG1_83 
ROOT
ATOM      1  N   GLY     1      66.974  47.899  48.953  1.00  0.00    -0.055 N 
ATOM      2  H1  GLY     1      66.827  48.778  49.408  1.00 99.99     0.276 HD
ATOM      3  H2  GLY     1      67.917  47.810  48.672  1.00 99.99     0.276 HD
ATOM      4  H3  GLY     1      66.452  47.882  48.112  1.00 99.99     0.276 HD
ENDROOT
BRANCH   1   5
ATOM      5  CA  GLY     1      66.573  46.813  49.868  1.00  0.00     0.292 C 
BRANCH   5   6
ATOM      6  C   GLY     1      65.434  45.955  49.276  1.00  0.00     0.261 C 
ATOM      7  O   GLY     1      64.264  46.210  49.571  1.00  0.00    -0.270 OA
ATOM      8  N   LEU     2      65.828  44.776  48.789  1.00  0.00    -0.337 N 
ATOM      9  H   LEU     2      66.784  44.494  48.843  1.00 99.99     0.164 HD
BRANCH   8  10
ATOM     10  CA  LEU     2      64.969  43.808  48.069  1.00  0.00     0.159 C 
BRANCH  10  11
ATOM     11  C   LEU     2      64.274  42.741  48.942  1.00  0.00     0.251 C 
ATOM     12  N   LEU     3      63.134  43.099  49.540  1.00  0.00    -0.338 N 
ATOM     13  H   LEU     3      62.857  44.056  49.573  1.00 99.99     0.164 HD
ATOM     14  O   LEU     2      64.690  41.586  48.914  1.00  0.00    -0.271 OA
BRANCH  12  15
ATOM     15  CA  LEU     3      62.279  42.208  50.359  1.00  0.00     0.159 C 
BRANCH  15  16
ATOM     16  C   LEU     3      60.923  41.761  49.781  1.00  0.00     0.251 C 
ATOM     17  N   LYS     4      59.838  42.488  50.067  1.00  0.00    -0.338 N 
ATOM     18  H   LYS     4      59.857  43.262  50.702  1.00 99.99     0.164 HD
ATOM     19  O   LEU     3      60.888  40.782  49.040  1.00  0.00    -0.271 OA
BRANCH  17  20
ATOM     20  CA  LYS     4      58.524  42.172  49.461  1.00  0.00     0.159 C 
BRANCH  20  21
ATOM     21  C   LYS     4      58.343  42.849  48.083  1.00  0.00     0.251 C 
ATOM     22  N   ARG     5      58.828  42.199  47.025  1.00  0.00    -0.338 N 
ATOM     23  H   ARG     5      59.145  41.253  47.102  1.00 99.99     0.164 HD
ATOM     24  O   LYS     4      57.522  43.754  47.974  1.00  0.00    -0.271 OA
BRANCH  22  25
ATOM     25  CA  ARG     5      58.805  42.705  45.631  1.00  0.00     0.159 C 
BRANCH  25  26
ATOM     26  CB  ARG     5      60.182  43.264  45.257  1.00  0.00     0.034 C 
BRANCH  26  27
ATOM     27  CG  ARG     5      61.309  42.846  46.202  1.00  0.00     0.027 C 
BRANCH  27  28
ATOM     28  CD  ARG     5      62.221  41.807  45.542  1.00  0.00     0.116 C 
BRANCH  28  29
ATOM     29  NE  ARG     5      62.660  40.777  46.506  1.00  0.00    -0.212 N 
ATOM     30  HE  ARG     5      62.137  40.749  47.356  1.00 99.99     0.178 HD
ATOM     31  CZ  ARG     5      63.636  39.888  46.318  1.00  0.00     0.666 C 
ATOM     32  NH1 ARG     5      64.344  39.867  45.195  1.00  0.00    -0.235 N 
ATOM     33  NH2 ARG     5      63.928  39.002  47.258  1.00  0.00    -0.235 N 
ATOM     34 2HH1 ARG     5      64.123  40.530  44.484  1.00 99.99     0.174 HD
ATOM     35 1HH1 ARG     5      65.065  39.192  45.057  1.00 99.99     0.174 HD
ATOM     36 2HH2 ARG     5      63.411  38.980  48.111  1.00 99.99     0.174 HD
ATOM     37 1HH2 ARG     5      64.653  38.336  47.094  1.00 99.99     0.174 HD
ENDBRANCH  28  29
ENDBRANCH  27  28
ENDBRANCH  26  27
ENDBRANCH  25  26
BRANCH  25  38
ATOM     38  C   ARG     5      58.379  41.699  44.533  1.00  0.00     0.251 C 
ATOM     39  N   ILE     6      58.609  40.418  44.810  1.00  0.00    -0.338 N 
ATOM     40  H   ILE     6      59.257  40.168  45.525  1.00 99.99     0.164 HD
ATOM     41  O   ARG     5      58.110  42.092  43.400  1.00  0.00    -0.271 OA
BRANCH  39  42
ATOM     42  CA  ILE     6      58.128  39.281  43.989  1.00  0.00     0.159 C 
BRANCH  42  43
ATOM     43  C   ILE     6      56.674  38.902  44.376  1.00  0.00     0.251 C 
ATOM     44  N   LYS     7      56.428  38.744  45.677  1.00  0.00    -0.338 N 
ATOM     45  H   LYS     7      57.157  38.826  46.354  1.00 99.99     0.164 HD
ATOM     46  O   ILE     6      55.820  38.716  43.511  1.00  0.00    -0.271 OA
BRANCH  44  47
ATOM     47  CA  LYS     7      55.107  38.413  46.260  1.00  0.00     0.159 C 
BRANCH  47  48
ATOM     48  C   LYS     7      54.312  39.631  46.773  1.00  0.00     0.251 C 
ATOM     49  O   LYS     7      54.157  40.615  46.053  1.00  0.00    -0.271 OA
ATOM     50  N   THR     8      53.566  39.409  47.853  1.00  0.00    -0.335 N 
ATOM     51  H   THR     8      53.271  38.478  48.085  1.00 99.99     0.164 HD
BRANCH  50  52
ATOM     52  CA  THR     8      53.012  40.468  48.729  1.00  0.00     0.195 C 
BRANCH  52  53
ATOM     53  CB  THR     8      51.747  39.981  49.464  1.00  0.00     0.141 C 
ATOM     54  CG2 THR     8      51.528  38.468  49.332  1.00  0.00     0.034 C 
BRANCH  53  55
ATOM     55  OG1 THR     8      51.804  40.327  50.850  1.00  0.00    -0.382 OA
ATOM     56  HG1 THR     8      51.774  41.323  50.945  1.00 99.99     0.210 HD
ENDBRANCH  53  55
ENDBRANCH  52  53
BRANCH  52  57
ATOM     57  C   THR     8      54.078  40.763  49.796  1.00  0.00     0.209 C 
ATOM     58  OXT THR     8      54.182  41.964  50.130  1.00 99.99    -0.646 OA
ATOM     59  O   THR     8      54.777  39.815  50.214  1.00 99.99    -0.646 OA
ENDBRANCH  52  57
ENDBRANCH  50  52
ENDBRANCH  47  48
BRANCH  47  60
ATOM     60  CB  LYS     7      55.281  37.423  47.410  1.00  0.00     0.032 C 
BRANCH  60  61
ATOM     61  CG  LYS     7      56.725  36.950  47.578  1.00  0.00     0.004 C 
BRANCH  61  62
ATOM     62  CD  LYS     7      57.171  37.272  49.001  1.00  0.00     0.032 C 
BRANCH  62  63
ATOM     63  CE  LYS     7      56.212  36.694  50.039  1.00  0.00     0.206 C 
BRANCH  63  64
ATOM     64  NZ  LYS     7      56.463  37.320  51.342  1.00  0.00    -0.064 N 
ATOM     65  HZ1 LYS     7      55.597  37.460  51.819  1.00 99.99     0.275 HD
ATOM     66  HZ2 LYS     7      57.061  36.732  51.887  1.00 99.99     0.275 HD
ATOM     67  HZ3 LYS     7      56.912  38.203  51.198  1.00 99.99     0.275 HD
ENDBRANCH  63  64
ENDBRANCH  62  63
ENDBRANCH  61  62
ENDBRANCH  60  61
ENDBRANCH  47  60
ENDBRANCH  44  47
ENDBRANCH  42  43
BRANCH  42  68
ATOM     68  CB  ILE     6      59.102  38.083  44.127  1.00  0.00     0.029 C 
ATOM     69  CG2 ILE     6      59.137  37.238  42.840  1.00  0.00     0.002 C 
BRANCH  68  70
ATOM     70  CG1 ILE     6      60.526  38.561  44.476  1.00  0.00     0.002 C 
ATOM     71  CD  ILE     6      61.428  38.826  43.261  1.00  0.00     0.000 C 
ENDBRANCH  68  70
ENDBRANCH  42  68
ENDBRANCH  39  42
ENDBRANCH  25  38
ENDBRANCH  22  25
ENDBRANCH  20  21
BRANCH  20  72
ATOM     72  CB  LYS     4      57.355  42.478  50.413  1.00  0.00     0.032 C 
BRANCH  72  73
ATOM     73  CG  LYS     4      57.753  42.183  51.866  1.00  0.00     0.004 C 
BRANCH  73  74
ATOM     74  CD  LYS     4      57.597  40.715  52.281  1.00  0.00     0.032 C 
BRANCH  74  75
ATOM     75  CE  LYS     4      56.361  40.562  53.174  1.00  0.00     0.206 C 
BRANCH  75  76
ATOM     76  NZ  LYS     4      55.374  41.641  52.988  1.00  0.00    -0.064 N 
ATOM     77  HZ3 LYS     4      54.487  41.255  52.734  1.00 99.99     0.275 HD
ATOM     78  HZ2 LYS     4      55.687  42.265  52.272  1.00 99.99     0.275 HD
ATOM     79  HZ1 LYS     4      55.277  42.150  53.843  1.00 99.99     0.275 HD
ENDBRANCH  75  76
ENDBRANCH  74  75
ENDBRANCH  73  74
ENDBRANCH  72  73
ENDBRANCH  20  72
ENDBRANCH  17  20
ENDBRANCH  15  16
BRANCH  15  80
ATOM     80  CB  LEU     3      62.044  42.840  51.739  1.00  0.00     0.032 C 
BRANCH  80  81
ATOM     81  CG  LEU     3      62.360  41.902  52.910  1.00  0.00     0.002 C 
ATOM     82  CD1 LEU     3      61.052  41.374  53.503  1.00  0.00     0.000 C 
ATOM     83  CD2 LEU     3      63.233  40.723  52.466  1.00  0.00     0.000 C 
ENDBRANCH  80  81
ENDBRANCH  15  80
ENDBRANCH  12  15
ENDBRANCH  10  11
BRANCH  10  84
ATOM     84  CB  LEU     2      65.828  43.183  46.959  1.00  0.00     0.032 C 
BRANCH  84  85
ATOM     85  CG  LEU     2      67.343  43.229  47.192  1.00  0.00     0.002 C 
ATOM     86  CD1 LEU     2      67.891  41.880  47.674  1.00  0.00     0.000 C 
ATOM     87  CD2 LEU     2      68.043  43.651  45.899  1.00  0.00     0.000 C 
ENDBRANCH  84  85
ENDBRANCH  10  84
ENDBRANCH   8  10
ENDBRANCH   5   6
ENDBRANCH   1   5
TORSDOF 38
ENDMDL
MODEL 9
REMARK VINA RESULT:      -3.9      2.161      5.845
REMARK WARNING: 32 MAX_TORS EXCEEDED!!!
REMARK  38 active torsions:
REMARK  status: ('A' for Active; 'I' for Inactive)
REMARK    1  A    between atoms: N_1  and  CA_2 
REMARK    2  A    between atoms: CA_2  and  C_3 
REMARK       I    between atoms: C_3  and  N_8 
REMARK    3  A    between atoms: N_8  and  CA_9 
REMARK    4  A    between atoms: CA_9  and  C_10 
REMARK    5  A    between atoms: CA_9  and  CB_12 
REMARK       I    between atoms: C_10  and  N_17 
REMARK    6  A    between atoms: CB_12  and  CG_13 
REMARK    7  A    between atoms: N_17  and  CA_18 
REMARK    8  A    between atoms: CA_18  and  C_19 
REMARK    9  A    between atoms: CA_18  and  CB_21 
REMARK       I    between atoms: C_19  and  N_26 
REMARK   10  A    between atoms: CB_21  and  CG_22 
REMARK   11  A    between atoms: N_26  and  CA_27 
REMARK   12  A    between atoms: CA_27  and  C_28 
REMARK   13  A    between atoms: CA_27  and  CB_30 
REMARK       I    between atoms: C_28  and  N_39 
REMARK   14  A    between atoms: CB_30  and  CG_31 
REMARK   15  A    between atoms: CG_31  and  CD_32 
REMARK   16  A    between atoms: CD_32  and  CE_33 
REMARK   17  A    between atoms: CE_33  and  NZ_34 
REMARK   18  A    between atoms: N_39  and  CA_40 
REMARK   19  A    between atoms: CA_40  and  CB_43 
REMARK   20  A    between atoms: CA_40  and  C_41 
REMARK       I    between atoms: C_41  and  N_56 
REMARK   21  A    between atoms: CB_43  and  CG_44 
REMARK   22  A    between atoms: CG_44  and  CD_45 
REMARK   23  A    between atoms: CD_45  and  NE_46 
REMARK       I    between atoms: NE_46  and  CZ_47 
REMARK       I    between atoms: CZ_47  and  NH1_48 
REMARK   24  A    between atoms: N_56  and  CA_57 
REMARK   25  A    between atoms: CA_57  and  C_58 
REMARK   26  A    between atoms: CA_57  and  CB_60 
REMARK       I    between atoms: C_58  and  N_65 
REMARK   27  A    between atoms: CB_60  and  CG1_61 
REMARK   28  A    between atoms: N_65  and  CA_66 
REMARK   29  A    between atoms: CA_66  and  C_67 
REMARK   30  A    between atoms: CA_66  and  CB_69 
REMARK       I    between atoms: C_67  and  N_78 
REMARK   31  A    between atoms: CB_69  and  CG_70 
REMARK   32  A    between atoms: CG_70  and  CD_71 
REMARK   33  A    between atoms: CD_71  and  CE_72 
REMARK   34  A    between atoms: CE_72  and  NZ_73 
REMARK   35  A    between atoms: N_78  and  CA_79 
REMARK   36  A    between atoms: CA_79  and  CB_82 
REMARK   37  A    between atoms: CA_79  and  C_80 
REMARK   38  A    between atoms: CB_82  and  OG1_83 
ROOT
ATOM      1  N   GLY     1      66.441  47.722  49.006  1.00  0.00    -0.055 N 
ATOM      2  H1  GLY     1      66.156  48.526  49.530  1.00 99.99     0.276 HD
ATOM      3  H2  GLY     1      67.388  47.806  48.737  1.00 99.99     0.276 HD
ATOM      4  H3  GLY     1      65.933  47.696  48.156  1.00 99.99     0.276 HD
ENDROOT
BRANCH   1   5
ATOM      5  CA  GLY     1      66.209  46.514  49.821  1.00  0.00     0.292 C 
BRANCH   5   6
ATOM      6  C   GLY     1      65.705  45.333  48.964  1.00  0.00     0.261 C 
ATOM      7  O   GLY     1      64.586  45.388  48.449  1.00  0.00    -0.270 OA
ATOM      8  N   LEU     2      66.368  44.190  49.154  1.00  0.00    -0.337 N 
ATOM      9  H   LEU     2      67.108  44.133  49.823  1.00 99.99     0.164 HD
BRANCH   8  10
ATOM     10  CA  LEU     2      66.169  42.937  48.392  1.00  0.00     0.159 C 
BRANCH  10  11
ATOM     11  C   LEU     2      65.240  41.890  49.042  1.00  0.00     0.251 C 
ATOM     12  N   LEU     3      64.160  42.353  49.679  1.00  0.00    -0.338 N 
ATOM     13  H   LEU     3      64.070  43.324  49.886  1.00 99.99     0.164 HD
ATOM     14  O   LEU     2      65.428  40.699  48.806  1.00  0.00    -0.271 OA
BRANCH  12  15
ATOM     15  CA  LEU     3      63.111  41.516  50.308  1.00  0.00     0.159 C 
BRANCH  15  16
ATOM     16  C   LEU     3      61.806  41.270  49.526  1.00  0.00     0.251 C 
ATOM     17  N   LYS     4      60.750  42.045  49.790  1.00  0.00    -0.338 N 
ATOM     18  H   LYS     4      60.747  42.725  50.526  1.00 99.99     0.164 HD
ATOM     19  O   LEU     3      61.792  40.405  48.654  1.00  0.00    -0.271 OA
BRANCH  17  20
ATOM     20  CA  LYS     4      59.500  41.929  49.004  1.00  0.00     0.159 C 
BRANCH  20  21
ATOM     21  C   LYS     4      59.505  42.855  47.766  1.00  0.00     0.251 C 
ATOM     22  N   ARG     5      60.272  42.485  46.741  1.00  0.00    -0.338 N 
ATOM     23  H   ARG     5      60.693  41.577  46.713  1.00 99.99     0.164 HD
ATOM     24  O   LYS     4      58.607  43.681  47.644  1.00  0.00    -0.271 OA
BRANCH  22  25
ATOM     25  CA  ARG     5      60.457  43.262  45.491  1.00  0.00     0.159 C 
BRANCH  25  26
ATOM     26  CB  ARG     5      61.828  42.951  44.882  1.00  0.00     0.034 C 
BRANCH  26  27
ATOM     27  CG  ARG     5      62.247  41.484  44.989  1.00  0.00     0.027 C 
BRANCH  27  28
ATOM     28  CD  ARG     5      63.594  41.350  45.706  1.00  0.00     0.116 C 
BRANCH  28  29
ATOM     29  NE  ARG     5      63.696  40.071  46.439  1.00  0.00    -0.212 N 
ATOM     30  HE  ARG     5      63.301  40.081  47.356  1.00 99.99     0.178 HD
ATOM     31  CZ  ARG     5      64.217  38.936  45.971  1.00  0.00     0.666 C 
ATOM     32  NH1 ARG     5      64.732  38.864  44.750  1.00  0.00    -0.235 N 
ATOM     33  NH2 ARG     5      64.239  37.846  46.724  1.00  0.00    -0.235 N 
ATOM     34 2HH1 ARG     5      64.713  39.682  44.179  1.00 99.99     0.174 HD
ATOM     35 1HH1 ARG     5      65.109  38.009  44.403  1.00 99.99     0.174 HD
ATOM     36 2HH2 ARG     5      63.852  37.859  47.644  1.00 99.99     0.174 HD
ATOM     37 1HH2 ARG     5      64.621  37.003  46.353  1.00 99.99     0.174 HD
ENDBRANCH  28  29
ENDBRANCH  27  28
ENDBRANCH  26  27
ENDBRANCH  25  26
BRANCH  25  38
ATOM     38  C   ARG     5      59.387  43.071  44.389  1.00  0.00     0.251 C 
ATOM     39  N   ILE     6      59.206  41.819  43.976  1.00  0.00    -0.338 N 
ATOM     40  H   ILE     6      59.901  41.127  44.155  1.00 99.99     0.164 HD
ATOM     41  O   ARG     5      58.952  44.040  43.768  1.00  0.00    -0.271 OA
BRANCH  39  42
ATOM     42  CA  ILE     6      58.122  41.382  43.064  1.00  0.00     0.159 C 
BRANCH  42  43
ATOM     43  C   ILE     6      57.272  40.263  43.720  1.00  0.00     0.251 C 
ATOM     44  N   LYS     7      57.105  40.341  45.041  1.00  0.00    -0.338 N 
ATOM     45  H   LYS     7      57.544  41.061  45.575  1.00 99.99     0.164 HD
ATOM     46  O   ILE     6      56.823  39.336  43.048  1.00  0.00    -0.271 OA
BRANCH  44  47
ATOM     47  CA  LYS     7      56.307  39.396  45.856  1.00  0.00     0.159 C 
BRANCH  47  48
ATOM     48  C   LYS     7      54.957  39.957  46.346  1.00  0.00     0.251 C 
ATOM     49  O   LYS     7      54.273  40.656  45.601  1.00  0.00    -0.271 OA
ATOM     50  N   THR     8      54.464  39.379  47.438  1.00  0.00    -0.335 N 
ATOM     51  H   THR     8      54.751  38.452  47.699  1.00 99.99     0.164 HD
BRANCH  50  52
ATOM     52  CA  THR     8      53.399  39.956  48.292  1.00  0.00     0.195 C 
BRANCH  52  53
ATOM     53  CB  THR     8      52.577  38.852  48.985  1.00  0.00     0.141 C 
ATOM     54  CG2 THR     8      52.862  37.455  48.419  1.00  0.00     0.034 C 
BRANCH  53  55
ATOM     55  OG1 THR     8      52.825  38.846  50.393  1.00  0.00    -0.382 OA
ATOM     56  HG1 THR     8      51.952  38.862  50.884  1.00 99.99     0.210 HD
ENDBRANCH  53  55
ENDBRANCH  52  53
BRANCH  52  57
ATOM     57  C   THR     8      54.104  40.764  49.394  1.00  0.00     0.209 C 
ATOM     58  OXT THR     8      53.538  41.832  49.719  1.00 99.99    -0.646 OA
ATOM     59  O   THR     8      55.185  40.332  49.846  1.00 99.99    -0.646 OA
ENDBRANCH  52  57
ENDBRANCH  50  52
ENDBRANCH  47  48
BRANCH  47  60
ATOM     60  CB  LYS     7      57.119  38.946  47.070  1.00  0.00     0.032 C 
BRANCH  60  61
ATOM     61  CG  LYS     7      57.742  37.562  46.892  1.00  0.00     0.004 C 
BRANCH  61  62
ATOM     62  CD  LYS     7      56.956  36.817  45.817  1.00  0.00     0.032 C 
BRANCH  62  63
ATOM     63  CE  LYS     7      57.853  35.887  45.002  1.00  0.00     0.206 C 
BRANCH  63  64
ATOM     64  NZ  LYS     7      59.260  36.208  45.264  1.00  0.00    -0.064 N 
ATOM     65  HZ1 LYS     7      59.326  36.792  46.072  1.00 99.99     0.275 HD
ATOM     66  HZ2 LYS     7      59.774  35.362  45.412  1.00 99.99     0.275 HD
ATOM     67  HZ3 LYS     7      59.637  36.689  44.472  1.00 99.99     0.275 HD
ENDBRANCH  63  64
ENDBRANCH  62  63
ENDBRANCH  61  62
ENDBRANCH  60  61
ENDBRANCH  47  60
ENDBRANCH  44  47
ENDBRANCH  42  43
BRANCH  42  68
ATOM     68  CB  ILE     6      58.723  40.941  41.705  1.00  0.00     0.029 C 
ATOM     69  CG2 ILE     6      58.160  41.781  40.543  1.00  0.00     0.002 C 
BRANCH  68  70
ATOM     70  CG1 ILE     6      60.262  41.037  41.720  1.00  0.00     0.002 C 
ATOM     71  CD  ILE     6      60.843  42.146  40.830  1.00  0.00     0.000 C 
ENDBRANCH  68  70
ENDBRANCH  42  68
ENDBRANCH  39  42
ENDBRANCH  25  38
ENDBRANCH  22  25
ENDBRANCH  20  21
BRANCH  20  72
ATOM     72  CB  LYS     4      58.246  42.130  49.871  1.00  0.00     0.032 C 
BRANCH  72  73
ATOM     73  CG  LYS     4      58.570  41.883  51.352  1.00  0.00     0.004 C 
BRANCH  73  74
ATOM     74  CD  LYS     4      57.771  42.752  52.329  1.00  0.00     0.032 C 
BRANCH  74  75
ATOM     75  CE  LYS     4      56.351  42.961  51.789  1.00  0.00     0.206 C 
BRANCH  75  76
ATOM     76  NZ  LYS     4      55.360  42.057  52.400  1.00  0.00    -0.064 N 
ATOM     77  HZ3 LYS     4      55.793  41.505  53.113  1.00 99.99     0.275 HD
ATOM     78  HZ2 LYS     4      54.974  41.457  51.700  1.00 99.99     0.275 HD
ATOM     79  HZ1 LYS     4      54.624  42.599  52.805  1.00 99.99     0.275 HD
ENDBRANCH  75  76
ENDBRANCH  74  75
ENDBRANCH  73  74
ENDBRANCH  72  73
ENDBRANCH  20  72
ENDBRANCH  17  20
ENDBRANCH  15  16
BRANCH  15  80
ATOM     80  CB  LEU     3      62.758  42.079  51.692  1.00  0.00     0.032 C 
BRANCH  80  81
ATOM     81  CG  LEU     3      63.117  41.141  52.850  1.00  0.00     0.002 C 
ATOM     82  CD1 LEU     3      62.172  41.400  54.025  1.00  0.00     0.000 C 
ATOM     83  CD2 LEU     3      63.020  39.669  52.432  1.00  0.00     0.000 C 
ENDBRANCH  80  81
ENDBRANCH  15  80
ENDBRANCH  12  15
ENDBRANCH  10  11
BRANCH  10  84
ATOM     84  CB  LEU     2      67.563  42.369  48.086  1.00  0.00     0.032 C 
BRANCH  84  85
ATOM     85  CG  LEU     2      67.976  42.391  46.609  1.00  0.00     0.002 C 
ATOM     86  CD1 LEU     2      67.220  41.342  45.786  1.00  0.00     0.000 C 
ATOM     87  CD2 LEU     2      67.733  43.788  46.036  1.00  0.00     0.000 C 
ENDBRANCH  84  85
ENDBRANCH  10  84
ENDBRANCH   8  10
ENDBRANCH   5   6
ENDBRANCH   1   5
TORSDOF 38
ENDMDL
