MODEL 1
REMARK VINA RESULT:      -2.8      0.000      0.000
REMARK WARNING: 32 MAX_TORS EXCEEDED!!!
REMARK  98 active torsions:
REMARK  status: ('A' for Active; 'I' for Inactive)
REMARK    1  A    between atoms: N_1  and  CA_2 
REMARK    2  A    between atoms: CA_2  and  CB_5 
REMARK    3  A    between atoms: CA_2  and  C_3 
REMARK       I    between atoms: C_3  and  N_16 
REMARK    4  A    between atoms: CB_5  and  CG_6 
REMARK    5  A    between atoms: CG_6  and  CD_7 
REMARK    6  A    between atoms: CD_7  and  CE_8 
REMARK    7  A    between atoms: CE_8  and  NZ_9 
REMARK    8  A    between atoms: N_16  and  CA_17 
REMARK    9  A    between atoms: CA_17  and  CB_20 
REMARK   10  A    between atoms: CA_17  and  C_18 
REMARK       I    between atoms: C_18  and  N_24 
REMARK   11  A    between atoms: CB_20  and  OG_21 
REMARK   12  A    between atoms: N_24  and  CA_25 
REMARK   13  A    between atoms: CA_25  and  C_26 
REMARK   14  A    between atoms: CA_25  and  CB_28 
REMARK       I    between atoms: C_26  and  N_33 
REMARK   15  A    between atoms: CB_28  and  CG_29 
REMARK   16  A    between atoms: N_33  and  CA_34 
REMARK   17  A    between atoms: CA_34  and  CB_37 
REMARK   18  A    between atoms: CA_34  and  C_35 
REMARK       I    between atoms: C_35  and  N_50 
REMARK   19  A    between atoms: CB_37  and  CG_38 
REMARK   20  A    between atoms: CG_38  and  CD_39 
REMARK   21  A    between atoms: CD_39  and  NE_40 
REMARK       I    between atoms: NE_40  and  CZ_41 
REMARK       I    between atoms: CZ_41  and  NH1_42 
REMARK       I    between atoms: CZ_41  and  NH2_43 
REMARK   22  A    between atoms: CA_51  and  C_52 
REMARK       I    between atoms: C_52  and  N_57 
REMARK   23  A    between atoms: N_57  and  CA_58 
REMARK   24  A    between atoms: CA_58  and  CB_61 
REMARK   25  A    between atoms: CA_58  and  C_59 
REMARK       I    between atoms: C_59  and  N_74 
REMARK   26  A    between atoms: CB_61  and  CG_62 
REMARK   27  A    between atoms: CG_62  and  CD_63 
REMARK   28  A    between atoms: CD_63  and  NE_64 
REMARK       I    between atoms: NE_64  and  CZ_65 
REMARK       I    between atoms: CZ_65  and  NH2_67 
REMARK       I    between atoms: CZ_65  and  NH1_66 
REMARK   29  A    between atoms: N_74  and  CA_75 
REMARK   30  A    between atoms: CA_75  and  CB_78 
REMARK   31  A    between atoms: CA_75  and  C_76 
REMARK       I    between atoms: C_76  and  N_82 
REMARK   32  A    between atoms: CB_78  and  SG_79 
REMARK   33  A    between atoms: N_82  and  CA_83 
REMARK   34  A    between atoms: CA_83  and  CB_86 
REMARK   35  A    between atoms: CA_83  and  C_84 
REMARK       I    between atoms: C_84  and  N_98 
REMARK   36  A    between atoms: CB_86  and  CG_87 
REMARK   37  A    between atoms: N_98  and  CA_99 
REMARK   38  A    between atoms: CA_99  and  CB_102 
REMARK   39  A    between atoms: CA_99  and  C_100 
REMARK       I    between atoms: C_100  and  N_107 
REMARK   40  A    between atoms: CB_102  and  CG1_103 
REMARK   41  A    between atoms: N_107  and  CA_108 
REMARK   42  A    between atoms: CA_108  and  C_109 
REMARK   43  A    between atoms: CA_108  and  CB_111 
REMARK       I    between atoms: C_109  and  N_120 
REMARK   44  A    between atoms: CB_111  and  CG_112 
REMARK   45  A    between atoms: CG_112  and  CD_113 
REMARK   46  A    between atoms: CD_113  and  CE_114 
REMARK   47  A    between atoms: CE_114  and  NZ_115 
REMARK   48  A    between atoms: N_120  and  CA_121 
REMARK   49  A    between atoms: CA_121  and  C_122 
REMARK   50  A    between atoms: CA_121  and  CB_124 
REMARK       I    between atoms: C_122  and  N_129 
REMARK   51  A    between atoms: CB_124  and  CG1_125 
REMARK   52  A    between atoms: N_129  and  CA_130 
REMARK   53  A    between atoms: CA_130  and  C_131 
REMARK   54  A    between atoms: CA_130  and  CB_133 
REMARK       I    between atoms: C_131  and  N_142 
REMARK   55  A    between atoms: CB_133  and  CG_134 
REMARK   56  A    between atoms: CG_134  and  CD_135 
REMARK   57  A    between atoms: CD_135  and  CE_136 
REMARK   58  A    between atoms: CE_136  and  NZ_137 
REMARK   59  A    between atoms: N_142  and  CA_143 
REMARK   60  A    between atoms: CA_143  and  CB_146 
REMARK   61  A    between atoms: CA_143  and  C_144 
REMARK       I    between atoms: C_144  and  N_154 
REMARK   62  A    between atoms: CB_146  and  CG_147 
REMARK   63  A    between atoms: N_154  and  CA_155 
REMARK   64  A    between atoms: CA_155  and  CB_158 
REMARK   65  A    between atoms: CA_155  and  C_156 
REMARK       I    between atoms: C_156  and  N_171 
REMARK   66  A    between atoms: CB_158  and  CG_159 
REMARK   67  A    between atoms: CG_159  and  CD_160 
REMARK   68  A    between atoms: CD_160  and  NE_161 
REMARK       I    between atoms: NE_161  and  CZ_162 
REMARK       I    between atoms: CZ_162  and  NH1_163 
REMARK   69  A    between atoms: N_171  and  CA_172 
REMARK   70  A    between atoms: CA_172  and  C_173 
REMARK   71  A    between atoms: CA_172  and  CB_175 
REMARK       I    between atoms: C_173  and  N_179 
REMARK   72  A    between atoms: CB_175  and  SG_176 
REMARK   73  A    between atoms: N_179  and  CA_180 
REMARK   74  A    between atoms: CA_180  and  C_181 
REMARK   75  A    between atoms: CA_180  and  CB_183 
REMARK       I    between atoms: C_181  and  N_192 
REMARK   76  A    between atoms: CB_183  and  CG_184 
REMARK   77  A    between atoms: CG_184  and  CD_185 
REMARK   78  A    between atoms: CD_185  and  CE_186 
REMARK   79  A    between atoms: CE_186  and  NZ_187 
REMARK   80  A    between atoms: N_192  and  CA_193 
REMARK   81  A    between atoms: CA_193  and  C_194 
REMARK   82  A    between atoms: CA_193  and  CB_196 
REMARK       I    between atoms: C_194  and  N_200 
REMARK   83  A    between atoms: CB_196  and  OG_197 
REMARK   84  A    between atoms: N_200  and  CA_201 
REMARK   85  A    between atoms: CA_201  and  C_202 
REMARK   86  A    between atoms: CA_201  and  CB_204 
REMARK       I    between atoms: C_202  and  N_209 
REMARK   87  A    between atoms: CB_204  and  CG_205 
REMARK   88  A    between atoms: N_209  and  CA_210 
REMARK   89  A    between atoms: CA_210  and  C_211 
REMARK   90  A    between atoms: CA_210  and  CB_213 
REMARK       I    between atoms: C_211  and  N_222 
REMARK   91  A    between atoms: CB_213  and  CG_214 
REMARK   92  A    between atoms: CG_214  and  CD_215 
REMARK   93  A    between atoms: CD_215  and  CE_216 
REMARK   94  A    between atoms: CE_216  and  NZ_217 
REMARK   95  A    between atoms: N_222  and  CA_223 
REMARK   96  A    between atoms: CA_223  and  CB_226 
REMARK   97  A    between atoms: CA_223  and  C_224 
REMARK   98  A    between atoms: CB_226  and  CG_227 
ROOT
ATOM      1  N   LYS     1      67.875  42.540  56.240  1.00  0.00    -0.058 N 
ATOM      2  H1  LYS     1      67.995  41.815  56.919  1.00 99.99     0.276 HD
ATOM      3  H2  LYS     1      68.253  43.369  56.605  1.00 99.99     0.276 HD
ATOM      4  H3  LYS     1      66.914  42.712  56.115  1.00 99.99     0.276 HD
ENDROOT
BRANCH   1   5
ATOM      5  CA  LYS     1      68.566  42.100  55.001  1.00  0.00     0.255 C 
BRANCH   5   6
ATOM      6  CB  LYS     1      70.048  41.775  55.275  1.00  0.00     0.040 C 
BRANCH   6   7
ATOM      7  CG  LYS     1      70.413  41.669  56.768  1.00  0.00     0.004 C 
BRANCH   7   8
ATOM      8  CD  LYS     1      71.224  40.403  57.075  1.00  0.00     0.032 C 
BRANCH   8   9
ATOM      9  CE  LYS     1      70.408  39.378  57.873  1.00  0.00     0.206 C 
BRANCH   9  10
ATOM     10  NZ  LYS     1      69.070  39.885  58.222  1.00  0.00    -0.064 N 
ATOM     11  HZ1 LYS     1      69.156  40.643  58.870  1.00 99.99     0.275 HD
ATOM     12  HZ2 LYS     1      68.605  40.210  57.399  1.00 99.99     0.275 HD
ATOM     13  HZ3 LYS     1      68.530  39.156  58.643  1.00 99.99     0.275 HD
ENDBRANCH   9  10
ENDBRANCH   8   9
ENDBRANCH   7   8
ENDBRANCH   6   7
ENDBRANCH   5   6
BRANCH   5  14
ATOM     14  C   LYS     1      67.839  40.838  54.505  1.00  0.00     0.259 C 
ATOM     15  N   SER     2      66.916  40.351  55.322  1.00  0.00    -0.336 N 
ATOM     16  H   SER     2      66.671  40.778  56.190  1.00 99.99     0.164 HD
ATOM     17  O   LYS     1      68.224  40.248  53.494  1.00  0.00    -0.271 OA
BRANCH  15  18
ATOM     18  CA  SER     2      66.153  39.125  55.018  1.00  0.00     0.189 C 
BRANCH  18  19
ATOM     19  CB  SER     2      67.026  37.890  55.313  1.00  0.00     0.169 C 
BRANCH  19  20
ATOM     20  OG  SER     2      67.480  37.858  56.681  1.00  0.00    -0.380 OA
ATOM     21  HG  SER     2      68.272  37.262  56.827  1.00 99.99     0.211 HD
ENDBRANCH  19  20
ENDBRANCH  18  19
BRANCH  18  22
ATOM     22  C   SER     2      64.903  39.148  55.916  1.00  0.00     0.253 C 
ATOM     23  O   SER     2      64.719  38.259  56.746  1.00  0.00    -0.270 OA
ATOM     24  N   LEU     3      64.175  40.264  55.929  1.00  0.00    -0.337 N 
ATOM     25  H   LEU     3      64.527  41.148  55.637  1.00 99.99     0.164 HD
BRANCH  24  26
ATOM     26  CA  LEU     3      62.859  40.267  56.600  1.00  0.00     0.159 C 
BRANCH  26  27
ATOM     27  C   LEU     3      61.704  40.192  55.579  1.00  0.00     0.251 C 
ATOM     28  O   LEU     3      60.697  39.516  55.795  1.00  0.00    -0.271 OA
ATOM     29  N   ARG     4      61.825  40.971  54.510  1.00  0.00    -0.338 N 
ATOM     30  H   ARG     4      62.587  41.609  54.419  1.00 99.99     0.164 HD
BRANCH  29  31
ATOM     31  CA  ARG     4      60.884  40.942  53.376  1.00  0.00     0.160 C 
BRANCH  31  32
ATOM     32  CB  ARG     4      60.812  42.328  52.720  1.00  0.00     0.034 C 
BRANCH  32  33
ATOM     33  CG  ARG     4      62.166  43.048  52.744  1.00  0.00     0.027 C 
BRANCH  33  34
ATOM     34  CD  ARG     4      62.548  43.614  51.374  1.00  0.00     0.116 C 
BRANCH  34  35
ATOM     35  NE  ARG     4      63.145  42.577  50.515  1.00  0.00    -0.212 N 
ATOM     36  CZ  ARG     4      63.064  42.500  49.183  1.00  0.00     0.666 C 
ATOM     37  NH1 ARG     4      62.421  43.418  48.462  1.00  0.00    -0.235 N 
ATOM     38  NH2 ARG     4      63.579  41.464  48.543  1.00  0.00    -0.235 N 
ATOM     39 2HH1 ARG     4      61.996  44.188  48.930  1.00 99.99     0.174 HD
ATOM     40 1HH1 ARG     4      62.379  43.338  47.470  1.00 99.99     0.174 HD
ATOM     41 1HH2 ARG     4      63.512  41.413  47.548  1.00 99.99     0.174 HD
ATOM     42 2HH2 ARG     4      64.026  40.725  49.047  1.00 99.99     0.174 HD
ATOM     43  HE  ARG     4      63.686  41.888  50.994  1.00 99.99     0.178 HD
ENDBRANCH  34  35
ENDBRANCH  33  34
ENDBRANCH  32  33
ENDBRANCH  31  32
BRANCH  31  44
ATOM     44  C   ARG     4      61.383  39.905  52.352  1.00  0.00     0.254 C 
ATOM     45  N   PRO     5      60.571  38.898  51.976  1.00  0.00    -0.312 N 
ATOM     46  CD  PRO     5      59.183  38.707  52.445  1.00  0.00     0.105 C 
ATOM     47  CA  PRO     5      60.953  37.795  51.055  1.00  0.00     0.163 C 
ATOM     48  CG  PRO     5      58.612  37.613  51.542  1.00  0.00     0.027 C 
ATOM     49  CB  PRO     5      59.837  36.757  51.230  1.00  0.00     0.034 C 
ATOM     50  O   ARG     4      62.496  40.110  51.863  1.00  0.00    -0.270 OA
BRANCH  47  51
ATOM     51  C   PRO     5      61.234  38.158  49.578  1.00  0.00     0.251 C 
ATOM     52  N   ARG     6      60.406  37.566  48.722  1.00  0.00    -0.338 N 
ATOM     53  H   ARG     6      59.822  36.836  49.076  1.00 99.99     0.164 HD
ATOM     54  O   PRO     5      62.242  38.763  49.228  1.00  0.00    -0.271 OA
BRANCH  52  55
ATOM     55  CA  ARG     6      60.200  37.827  47.285  1.00  0.00     0.159 C 
BRANCH  55  56
ATOM     56  CB  ARG     6      60.557  36.590  46.448  1.00  0.00     0.034 C 
BRANCH  56  57
ATOM     57  CG  ARG     6      60.722  35.322  47.293  1.00  0.00     0.027 C 
BRANCH  57  58
ATOM     58  CD  ARG     6      59.511  34.391  47.160  1.00  0.00     0.116 C 
BRANCH  58  59
ATOM     59  NE  ARG     6      58.351  34.930  47.889  1.00  0.00    -0.212 N 
ATOM     60  CZ  ARG     6      57.098  35.052  47.421  1.00  0.00     0.666 C 
ATOM     61  NH2 ARG     6      56.127  35.442  48.230  1.00  0.00    -0.235 N 
ATOM     62  NH1 ARG     6      56.776  34.719  46.180  1.00  0.00    -0.235 N 
ATOM     63 2HH2 ARG     6      56.307  35.641  49.191  1.00 99.99     0.174 HD
ATOM     64 1HH2 ARG     6      55.198  35.530  47.871  1.00 99.99     0.174 HD
ATOM     65 1HH1 ARG     6      55.836  34.822  45.857  1.00 99.99     0.174 HD
ATOM     66 2HH1 ARG     6      57.482  34.360  45.572  1.00 99.99     0.174 HD
ATOM     67  HE  ARG     6      58.537  35.225  48.820  1.00 99.99     0.178 HD
ENDBRANCH  58  59
ENDBRANCH  57  58
ENDBRANCH  56  57
ENDBRANCH  55  56
BRANCH  55  68
ATOM     68  C   ARG     6      58.743  38.227  46.970  1.00  0.00     0.251 C 
ATOM     69  N   CYS     7      58.472  38.636  45.720  1.00  0.00    -0.337 N 
ATOM     70  H   CYS     7      59.158  38.601  44.991  1.00 99.99     0.164 HD
ATOM     71  O   ARG     6      57.900  38.248  47.864  1.00  0.00    -0.271 OA
BRANCH  69  72
ATOM     72  CA  CYS     7      57.157  39.124  45.264  1.00  0.00     0.170 C 
BRANCH  72  73
ATOM     73  CB  CYS     7      56.041  38.466  46.099  1.00  0.00     0.085 C 
BRANCH  73  74
ATOM     74  SG  CYS     7      54.674  37.636  45.208  1.00  0.00    -0.165 SA
ATOM     75  HG  CYS     7      54.986  38.081  43.996  1.00 99.99     0.102 HD
ENDBRANCH  73  74
ENDBRANCH  72  73
BRANCH  72  76
ATOM     76  C   CYS     7      57.058  40.659  45.436  1.00  0.00     0.252 C 
ATOM     77  O   CYS     7      55.968  41.217  45.575  1.00  0.00    -0.271 OA
ATOM     78  N   TRP     8      58.202  41.342  45.451  1.00  0.00    -0.337 N 
ATOM     79  H   TRP     8      59.099  40.902  45.459  1.00 99.99     0.164 HD
BRANCH  78  80
ATOM     80  CA  TRP     8      58.214  42.819  45.566  1.00  0.00     0.164 C 
BRANCH  80  81
ATOM     81  CB  TRP     8      58.813  43.281  46.899  1.00  0.00     0.059 C 
BRANCH  81  82
ATOM     82  CG  TRP     8      58.556  42.308  48.056  1.00  0.00    -0.016 A 
ATOM     83  CD1 TRP     8      59.377  41.389  48.550  1.00  0.00     0.097 A 
ATOM     84  NE1 TRP     8      58.795  40.774  49.582  1.00  0.00    -0.365 N 
ATOM     85  HE1 TRP     8      59.170  39.980  50.055  1.00 99.99     0.165 HD
ATOM     86  CE2 TRP     8      57.580  41.292  49.771  1.00  0.00     0.042 A 
ATOM     87  CZ2 TRP     8      56.567  41.021  50.678  1.00  0.00     0.030 A 
ATOM     88  CD2 TRP     8      57.389  42.260  48.800  1.00  0.00    -0.001 A 
ATOM     89  CH2 TRP     8      55.357  41.709  50.593  1.00  0.00     0.002 A 
ATOM     90  CZ3 TRP     8      55.163  42.657  49.600  1.00  0.00     0.001 A 
ATOM     91  CE3 TRP     8      56.185  42.938  48.702  1.00  0.00     0.014 A 
ENDBRANCH  81  82
ENDBRANCH  80  81
BRANCH  80  92
ATOM     92  C   TRP     8      58.879  43.514  44.374  1.00  0.00     0.251 C 
ATOM     93  O   TRP     8      58.796  44.724  44.166  1.00  0.00    -0.271 OA
ATOM     94  N   ILE     9      59.469  42.664  43.535  1.00  0.00    -0.338 N 
ATOM     95  H   ILE     9      59.395  41.676  43.668  1.00 99.99     0.164 HD
BRANCH  94  96
ATOM     96  CA  ILE     9      60.277  43.082  42.374  1.00  0.00     0.159 C 
BRANCH  96  97
ATOM     97  CB  ILE     9      61.683  42.439  42.462  1.00  0.00     0.029 C 
ATOM     98  CG2 ILE     9      62.259  42.588  43.880  1.00  0.00     0.002 C 
BRANCH  97  99
ATOM     99  CG1 ILE     9      61.625  40.950  42.065  1.00  0.00     0.002 C 
ATOM    100  CD  ILE     9      61.020  40.024  43.128  1.00  0.00     0.000 C 
ENDBRANCH  97  99
ENDBRANCH  96  97
BRANCH  96 101
ATOM    101  C   ILE     9      59.549  42.786  41.044  1.00  0.00     0.251 C 
ATOM    102  N   LYS    10      60.146  43.300  39.966  1.00  0.00    -0.338 N 
ATOM    103  H   LYS    10      60.901  43.947  40.084  1.00 99.99     0.164 HD
ATOM    104  O   ILE     9      58.420  42.299  41.039  1.00  0.00    -0.271 OA
BRANCH 102 105
ATOM    105  CA  LYS    10      59.789  43.048  38.549  1.00  0.00     0.159 C 
BRANCH 105 106
ATOM    106  C   LYS    10      59.518  41.567  38.167  1.00  0.00     0.251 C 
ATOM    107  O   LYS    10      60.411  40.723  38.127  1.00  0.00    -0.271 OA
ATOM    108  N   ILE    11      58.274  41.278  37.779  1.00  0.00    -0.338 N 
ATOM    109  H   ILE    11      57.563  41.975  37.736  1.00 99.99     0.164 HD
BRANCH 108 110
ATOM    110  CA  ILE    11      57.853  39.911  37.390  1.00  0.00     0.159 C 
BRANCH 110 111
ATOM    111  C   ILE    11      58.428  38.801  38.293  1.00  0.00     0.251 C 
ATOM    112  N   LYS    12      58.228  38.955  39.605  1.00  0.00    -0.338 N 
ATOM    113  H   LYS    12      57.885  39.815  39.980  1.00 99.99     0.164 HD
ATOM    114  O   ILE    11      59.009  37.832  37.808  1.00  0.00    -0.271 OA
BRANCH 112 115
ATOM    115  CA  LYS    12      58.594  37.929  40.607  1.00  0.00     0.159 C 
BRANCH 115 116
ATOM    116  C   LYS    12      59.968  37.288  40.320  1.00  0.00     0.251 C 
ATOM    117  O   LYS    12      60.128  36.070  40.260  1.00  0.00    -0.271 OA
ATOM    118  N   PHE    13      60.975  38.147  40.145  1.00  0.00    -0.337 N 
ATOM    119  H   PHE    13      60.883  39.116  40.365  1.00 99.99     0.164 HD
BRANCH 118 120
ATOM    120  CA  PHE    13      62.338  37.704  39.781  1.00  0.00     0.164 C 
BRANCH 120 121
ATOM    121  CB  PHE    13      62.877  36.678  40.792  1.00  0.00     0.056 C 
BRANCH 121 122
ATOM    122  CG  PHE    13      64.379  36.785  41.066  1.00  0.00    -0.044 A 
ATOM    123  CD1 PHE    13      64.990  35.890  41.938  1.00  0.00     0.008 A 
ATOM    124  CE1 PHE    13      66.344  35.997  42.209  1.00  0.00     0.001 A 
ATOM    125  CZ  PHE    13      67.100  37.004  41.609  1.00  0.00     0.000 A 
ATOM    126  CE2 PHE    13      66.489  37.888  40.725  1.00  0.00     0.001 A 
ATOM    127  CD2 PHE    13      65.134  37.783  40.459  1.00  0.00     0.008 A 
ENDBRANCH 121 122
ENDBRANCH 120 121
BRANCH 120 128
ATOM    128  C   PHE    13      62.455  37.177  38.340  1.00  0.00     0.251 C 
ATOM    129  N   ARG    14      62.276  38.099  37.395  1.00  0.00    -0.338 N 
ATOM    130  H   ARG    14      61.833  38.964  37.610  1.00 99.99     0.164 HD
ATOM    131  O   PHE    13      62.634  35.985  38.109  1.00  0.00    -0.271 OA
BRANCH 129 132
ATOM    132  CA  ARG    14      62.488  37.812  35.960  1.00  0.00     0.159 C 
BRANCH 132 133
ATOM    133  CB  ARG    14      61.185  37.964  35.156  1.00  0.00     0.034 C 
BRANCH 133 134
ATOM    134  CG  ARG    14      60.814  36.694  34.376  1.00  0.00     0.027 C 
BRANCH 134 135
ATOM    135  CD  ARG    14      61.042  35.424  35.206  1.00  0.00     0.116 C 
BRANCH 135 136
ATOM    136  NE  ARG    14      60.063  35.339  36.301  1.00  0.00    -0.212 N 
ATOM    137  CZ  ARG    14      58.810  34.868  36.217  1.00  0.00     0.666 C 
ATOM    138  NH1 ARG    14      58.324  34.343  35.102  1.00  0.00    -0.235 N 
ATOM    139  NH2 ARG    14      57.994  34.975  37.253  1.00  0.00    -0.235 N 
ATOM    140 2HH1 ARG    14      58.916  34.258  34.295  1.00 99.99     0.174 HD
ATOM    141 1HH1 ARG    14      57.388  34.001  35.064  1.00 99.99     0.174 HD
ATOM    142 2HH2 ARG    14      58.301  35.401  38.100  1.00 99.99     0.174 HD
ATOM    143 1HH2 ARG    14      57.061  34.626  37.176  1.00 99.99     0.174 HD
ATOM    144  HE  ARG    14      60.385  35.671  37.182  1.00 99.99     0.178 HD
ENDBRANCH 135 136
ENDBRANCH 134 135
ENDBRANCH 133 134
ENDBRANCH 132 133
BRANCH 132 145
ATOM    145  C   ARG    14      63.641  38.573  35.280  1.00  0.00     0.251 C 
ATOM    146  N   CYS    15      64.130  39.637  35.917  1.00  0.00    -0.337 N 
ATOM    147  H   CYS    15      63.851  39.879  36.841  1.00 99.99     0.164 HD
ATOM    148  O   ARG    14      64.100  38.172  34.214  1.00  0.00    -0.271 OA
BRANCH 146 149
ATOM    149  CA  CYS    15      65.200  40.492  35.360  1.00  0.00     0.170 C 
BRANCH 149 150
ATOM    150  C   CYS    15      66.555  40.363  36.079  1.00  0.00     0.252 C 
ATOM    151  N   LYS    16      66.527  39.569  37.150  1.00  0.00    -0.337 N 
ATOM    152  H   LYS    16      65.676  39.169  37.480  1.00 99.99     0.164 HD
ATOM    153  O   CYS    15      67.594  40.759  35.558  1.00  0.00    -0.271 OA
BRANCH 151 154
ATOM    154  CA  LYS    16      67.714  39.271  37.979  1.00  0.00     0.159 C 
BRANCH 154 155
ATOM    155  C   LYS    16      68.226  40.488  38.773  1.00  0.00     0.251 C 
ATOM    156  N   SER    17      69.459  40.362  39.268  1.00  0.00    -0.336 N 
ATOM    157  H   SER    17      69.989  39.526  39.123  1.00 99.99     0.164 HD
ATOM    158  O   LYS    16      67.521  41.477  38.991  1.00  0.00    -0.271 OA
BRANCH 156 159
ATOM    159  CA  SER    17      70.161  41.434  39.999  1.00  0.00     0.189 C 
BRANCH 159 160
ATOM    160  C   SER    17      69.323  41.959  41.175  1.00  0.00     0.253 C 
ATOM    161  O   SER    17      69.289  43.165  41.395  1.00  0.00    -0.270 OA
ATOM    162  N   LEU    18      68.817  41.051  42.016  1.00  0.00    -0.337 N 
ATOM    163  H   LEU    18      68.998  40.078  41.857  1.00 99.99     0.164 HD
BRANCH 162 164
ATOM    164  CA  LEU    18      67.967  41.358  43.178  1.00  0.00     0.159 C 
BRANCH 164 165
ATOM    165  C   LEU    18      68.746  41.592  44.478  1.00  0.00     0.251 C 
ATOM    166  O   LEU    18      69.961  41.757  44.488  1.00  0.00    -0.271 OA
ATOM    167  N   LYS    19      67.949  41.696  45.539  1.00  0.00    -0.338 N 
ATOM    168  H   LYS    19      66.957  41.662  45.445  1.00 99.99     0.164 HD
BRANCH 167 169
ATOM    169  CA  LYS    19      68.408  41.819  46.931  1.00  0.00     0.159 C 
BRANCH 169 170
ATOM    170  C   LYS    19      67.724  40.743  47.774  1.00  0.00     0.251 C 
ATOM    171  N   PHE    20      68.552  39.873  48.334  1.00  0.00    -0.336 N 
ATOM    172  H   PHE    20      69.535  39.892  48.150  1.00 99.99     0.164 HD
ATOM    173  O   LYS    19      66.496  40.688  47.861  1.00  0.00    -0.271 OA
BRANCH 171 174
ATOM    174  CA  PHE    20      68.107  38.839  49.288  1.00  0.00     0.172 C 
BRANCH 174 175
ATOM    175  CB  PHE    20      67.587  37.605  48.539  1.00  0.00     0.058 C 
BRANCH 175 176
ATOM    176  CG  PHE    20      66.341  36.985  49.190  1.00  0.00    -0.044 A 
ATOM    177  CD2 PHE    20      65.664  35.947  48.564  1.00  0.00     0.008 A 
ATOM    178  CE2 PHE    20      64.513  35.416  49.134  1.00  0.00     0.001 A 
ATOM    179  CZ  PHE    20      64.030  35.925  50.336  1.00  0.00     0.000 A 
ATOM    180  CE1 PHE    20      64.720  36.954  50.974  1.00  0.00     0.001 A 
ATOM    181  CD1 PHE    20      65.872  37.480  50.400  1.00  0.00     0.008 A 
ENDBRANCH 175 176
ENDBRANCH 174 175
BRANCH 174 182
ATOM    182  C   PHE    20      69.284  38.460  50.199  1.00  0.00     0.207 C 
ATOM    183  OXT PHE    20      69.789  37.332  50.030  1.00 99.99    -0.646 OA
ATOM    184  O   PHE    20      69.866  39.386  50.782  1.00 99.99    -0.646 OA
ENDBRANCH 174 182
ENDBRANCH 171 174
ENDBRANCH 169 170
BRANCH 169 185
ATOM    185  CB  LYS    19      68.040  43.195  47.504  1.00  0.00     0.032 C 
BRANCH 185 186
ATOM    186  CG  LYS    19      66.550  43.339  47.830  1.00  0.00     0.004 C 
BRANCH 186 187
ATOM    187  CD  LYS    19      66.301  44.339  48.965  1.00  0.00     0.032 C 
BRANCH 187 188
ATOM    188  CE  LYS    19      66.629  45.769  48.530  1.00  0.00     0.206 C 
BRANCH 188 189
ATOM    189  NZ  LYS    19      65.583  46.698  48.983  1.00  0.00    -0.064 N 
ATOM    190  HZ3 LYS    19      64.960  46.909  48.227  1.00 99.99     0.275 HD
ATOM    191  HZ1 LYS    19      65.063  46.303  49.738  1.00 99.99     0.275 HD
ATOM    192  HZ2 LYS    19      66.004  47.561  49.274  1.00 99.99     0.275 HD
ENDBRANCH 188 189
ENDBRANCH 187 188
ENDBRANCH 186 187
ENDBRANCH 185 186
ENDBRANCH 169 185
ENDBRANCH 167 169
ENDBRANCH 164 165
BRANCH 164 193
ATOM    193  CB  LEU    18      66.948  40.231  43.395  1.00  0.00     0.032 C 
BRANCH 193 194
ATOM    194  CG  LEU    18      65.491  40.699  43.300  1.00  0.00     0.002 C 
ATOM    195  CD1 LEU    18      65.220  41.240  41.895  1.00  0.00     0.000 C 
ATOM    196  CD2 LEU    18      64.514  39.555  43.601  1.00  0.00     0.000 C 
ENDBRANCH 193 194
ENDBRANCH 164 193
ENDBRANCH 162 164
ENDBRANCH 159 160
BRANCH 159 197
ATOM    197  CB  SER    17      70.641  42.549  39.052  1.00  0.00     0.169 C 
BRANCH 197 198
ATOM    198  OG  SER    17      69.592  43.465  38.714  1.00  0.00    -0.380 OA
ATOM    199  HG  SER    17      69.321  43.914  39.567  1.00 99.99     0.211 HD
ENDBRANCH 197 198
ENDBRANCH 159 197
ENDBRANCH 156 159
ENDBRANCH 154 155
BRANCH 154 200
ATOM    200  CB  LYS    16      68.824  38.669  37.101  1.00  0.00     0.032 C 
BRANCH 200 201
ATOM    201  CG  LYS    16      68.636  37.179  36.808  1.00  0.00     0.004 C 
BRANCH 201 202
ATOM    202  CD  LYS    16      68.190  37.006  35.355  1.00  0.00     0.032 C 
BRANCH 202 203
ATOM    203  CE  LYS    16      66.876  36.231  35.246  1.00  0.00     0.206 C 
BRANCH 203 204
ATOM    204  NZ  LYS    16      66.764  35.249  36.334  1.00  0.00    -0.064 N 
ATOM    205  HZ1 LYS    16      66.154  34.507  36.055  1.00 99.99     0.275 HD
ATOM    206  HZ2 LYS    16      67.669  34.875  36.542  1.00 99.99     0.275 HD
ATOM    207  HZ3 LYS    16      66.394  35.695  37.149  1.00 99.99     0.275 HD
ENDBRANCH 203 204
ENDBRANCH 202 203
ENDBRANCH 201 202
ENDBRANCH 200 201
ENDBRANCH 154 200
ENDBRANCH 151 154
ENDBRANCH 149 150
BRANCH 149 208
ATOM    208  CB  CYS    15      64.732  41.952  35.341  1.00  0.00     0.085 C 
BRANCH 208 209
ATOM    209  SG  CYS    15      64.493  42.695  36.998  1.00  0.00    -0.165 SA
ATOM    210  HG  CYS    15      65.490  43.569  36.898  1.00 99.99     0.102 HD
ENDBRANCH 208 209
ENDBRANCH 149 208
ENDBRANCH 146 149
ENDBRANCH 132 145
ENDBRANCH 129 132
ENDBRANCH 120 128
ENDBRANCH 118 120
ENDBRANCH 115 116
BRANCH 115 211
ATOM    211  CB  LYS    12      57.507  36.843  40.708  1.00  0.00     0.032 C 
BRANCH 211 212
ATOM    212  CG  LYS    12      57.026  36.565  42.135  1.00  0.00     0.004 C 
BRANCH 212 213
ATOM    213  CD  LYS    12      57.588  35.224  42.614  1.00  0.00     0.032 C 
BRANCH 213 214
ATOM    214  CE  LYS    12      58.869  35.405  43.431  1.00  0.00     0.206 C 
BRANCH 214 215
ATOM    215  NZ  LYS    12      59.564  34.122  43.615  1.00  0.00    -0.064 N 
ATOM    216  HZ3 LYS    12      59.025  33.534  44.218  1.00 99.99     0.275 HD
ATOM    217  HZ2 LYS    12      60.463  34.283  44.021  1.00 99.99     0.275 HD
ATOM    218  HZ1 LYS    12      59.676  33.675  42.727  1.00 99.99     0.275 HD
ENDBRANCH 214 215
ENDBRANCH 213 214
ENDBRANCH 212 213
ENDBRANCH 211 212
ENDBRANCH 115 211
ENDBRANCH 112 115
ENDBRANCH 110 111
BRANCH 110 219
ATOM    219  CB  ILE    11      58.142  39.619  35.902  1.00  0.00     0.029 C 
ATOM    220  CG2 ILE    11      57.150  38.563  35.390  1.00  0.00     0.002 C 
BRANCH 219 221
ATOM    221  CG1 ILE    11      58.157  40.886  35.028  1.00  0.00     0.002 C 
ATOM    222  CD  ILE    11      59.490  41.108  34.300  1.00  0.00     0.000 C 
ENDBRANCH 219 221
ENDBRANCH 110 219
ENDBRANCH 108 110
ENDBRANCH 105 106
BRANCH 105 223
ATOM    223  CB  LYS    10      60.854  43.722  37.662  1.00  0.00     0.032 C 
BRANCH 223 224
ATOM    224  CG  LYS    10      60.311  44.168  36.300  1.00  0.00     0.004 C 
BRANCH 224 225
ATOM    225  CD  LYS    10      61.420  44.218  35.249  1.00  0.00     0.032 C 
BRANCH 225 226
ATOM    226  CE  LYS    10      61.612  45.649  34.743  1.00  0.00     0.206 C 
BRANCH 226 227
ATOM    227  NZ  LYS    10      60.422  46.120  34.021  1.00  0.00    -0.064 N 
ATOM    228  HZ2 LYS    10      60.549  45.970  33.041  1.00 99.99     0.275 HD
ATOM    229  HZ3 LYS    10      59.619  45.615  34.335  1.00 99.99     0.275 HD
ATOM    230  HZ1 LYS    10      60.293  47.096  34.196  1.00 99.99     0.275 HD
ENDBRANCH 226 227
ENDBRANCH 225 226
ENDBRANCH 224 225
ENDBRANCH 223 224
ENDBRANCH 105 223
ENDBRANCH 102 105
ENDBRANCH  96 101
ENDBRANCH  94  96
ENDBRANCH  80  92
ENDBRANCH  78  80
ENDBRANCH  72  76
ENDBRANCH  69  72
ENDBRANCH  55  68
ENDBRANCH  52  55
ENDBRANCH  47  51
ENDBRANCH  31  44
ENDBRANCH  29  31
ENDBRANCH  26  27
BRANCH  26 231
ATOM    231  CB  LEU     3      62.755  41.463  57.566  1.00  0.00     0.032 C 
BRANCH 231 232
ATOM    232  CG  LEU     3      62.478  41.039  59.016  1.00  0.00     0.002 C 
ATOM    233  CD2 LEU     3      63.429  39.926  59.469  1.00  0.00     0.000 C 
ATOM    234  CD1 LEU     3      61.032  40.559  59.150  1.00  0.00     0.000 C 
ENDBRANCH 231 232
ENDBRANCH  26 231
ENDBRANCH  24  26
ENDBRANCH  18  22
ENDBRANCH  15  18
ENDBRANCH   5  14
ENDBRANCH   1   5
TORSDOF 98
ENDMDL
MODEL 2
REMARK VINA RESULT:      -2.6      2.878      8.116
REMARK WARNING: 32 MAX_TORS EXCEEDED!!!
REMARK  98 active torsions:
REMARK  status: ('A' for Active; 'I' for Inactive)
REMARK    1  A    between atoms: N_1  and  CA_2 
REMARK    2  A    between atoms: CA_2  and  CB_5 
REMARK    3  A    between atoms: CA_2  and  C_3 
REMARK       I    between atoms: C_3  and  N_16 
REMARK    4  A    between atoms: CB_5  and  CG_6 
REMARK    5  A    between atoms: CG_6  and  CD_7 
REMARK    6  A    between atoms: CD_7  and  CE_8 
REMARK    7  A    between atoms: CE_8  and  NZ_9 
REMARK    8  A    between atoms: N_16  and  CA_17 
REMARK    9  A    between atoms: CA_17  and  CB_20 
REMARK   10  A    between atoms: CA_17  and  C_18 
REMARK       I    between atoms: C_18  and  N_24 
REMARK   11  A    between atoms: CB_20  and  OG_21 
REMARK   12  A    between atoms: N_24  and  CA_25 
REMARK   13  A    between atoms: CA_25  and  C_26 
REMARK   14  A    between atoms: CA_25  and  CB_28 
REMARK       I    between atoms: C_26  and  N_33 
REMARK   15  A    between atoms: CB_28  and  CG_29 
REMARK   16  A    between atoms: N_33  and  CA_34 
REMARK   17  A    between atoms: CA_34  and  CB_37 
REMARK   18  A    between atoms: CA_34  and  C_35 
REMARK       I    between atoms: C_35  and  N_50 
REMARK   19  A    between atoms: CB_37  and  CG_38 
REMARK   20  A    between atoms: CG_38  and  CD_39 
REMARK   21  A    between atoms: CD_39  and  NE_40 
REMARK       I    between atoms: NE_40  and  CZ_41 
REMARK       I    between atoms: CZ_41  and  NH1_42 
REMARK       I    between atoms: CZ_41  and  NH2_43 
REMARK   22  A    between atoms: CA_51  and  C_52 
REMARK       I    between atoms: C_52  and  N_57 
REMARK   23  A    between atoms: N_57  and  CA_58 
REMARK   24  A    between atoms: CA_58  and  CB_61 
REMARK   25  A    between atoms: CA_58  and  C_59 
REMARK       I    between atoms: C_59  and  N_74 
REMARK   26  A    between atoms: CB_61  and  CG_62 
REMARK   27  A    between atoms: CG_62  and  CD_63 
REMARK   28  A    between atoms: CD_63  and  NE_64 
REMARK       I    between atoms: NE_64  and  CZ_65 
REMARK       I    between atoms: CZ_65  and  NH2_67 
REMARK       I    between atoms: CZ_65  and  NH1_66 
REMARK   29  A    between atoms: N_74  and  CA_75 
REMARK   30  A    between atoms: CA_75  and  CB_78 
REMARK   31  A    between atoms: CA_75  and  C_76 
REMARK       I    between atoms: C_76  and  N_82 
REMARK   32  A    between atoms: CB_78  and  SG_79 
REMARK   33  A    between atoms: N_82  and  CA_83 
REMARK   34  A    between atoms: CA_83  and  CB_86 
REMARK   35  A    between atoms: CA_83  and  C_84 
REMARK       I    between atoms: C_84  and  N_98 
REMARK   36  A    between atoms: CB_86  and  CG_87 
REMARK   37  A    between atoms: N_98  and  CA_99 
REMARK   38  A    between atoms: CA_99  and  CB_102 
REMARK   39  A    between atoms: CA_99  and  C_100 
REMARK       I    between atoms: C_100  and  N_107 
REMARK   40  A    between atoms: CB_102  and  CG1_103 
REMARK   41  A    between atoms: N_107  and  CA_108 
REMARK   42  A    between atoms: CA_108  and  C_109 
REMARK   43  A    between atoms: CA_108  and  CB_111 
REMARK       I    between atoms: C_109  and  N_120 
REMARK   44  A    between atoms: CB_111  and  CG_112 
REMARK   45  A    between atoms: CG_112  and  CD_113 
REMARK   46  A    between atoms: CD_113  and  CE_114 
REMARK   47  A    between atoms: CE_114  and  NZ_115 
REMARK   48  A    between atoms: N_120  and  CA_121 
REMARK   49  A    between atoms: CA_121  and  C_122 
REMARK   50  A    between atoms: CA_121  and  CB_124 
REMARK       I    between atoms: C_122  and  N_129 
REMARK   51  A    between atoms: CB_124  and  CG1_125 
REMARK   52  A    between atoms: N_129  and  CA_130 
REMARK   53  A    between atoms: CA_130  and  C_131 
REMARK   54  A    between atoms: CA_130  and  CB_133 
REMARK       I    between atoms: C_131  and  N_142 
REMARK   55  A    between atoms: CB_133  and  CG_134 
REMARK   56  A    between atoms: CG_134  and  CD_135 
REMARK   57  A    between atoms: CD_135  and  CE_136 
REMARK   58  A    between atoms: CE_136  and  NZ_137 
REMARK   59  A    between atoms: N_142  and  CA_143 
REMARK   60  A    between atoms: CA_143  and  CB_146 
REMARK   61  A    between atoms: CA_143  and  C_144 
REMARK       I    between atoms: C_144  and  N_154 
REMARK   62  A    between atoms: CB_146  and  CG_147 
REMARK   63  A    between atoms: N_154  and  CA_155 
REMARK   64  A    between atoms: CA_155  and  CB_158 
REMARK   65  A    between atoms: CA_155  and  C_156 
REMARK       I    between atoms: C_156  and  N_171 
REMARK   66  A    between atoms: CB_158  and  CG_159 
REMARK   67  A    between atoms: CG_159  and  CD_160 
REMARK   68  A    between atoms: CD_160  and  NE_161 
REMARK       I    between atoms: NE_161  and  CZ_162 
REMARK       I    between atoms: CZ_162  and  NH1_163 
REMARK   69  A    between atoms: N_171  and  CA_172 
REMARK   70  A    between atoms: CA_172  and  C_173 
REMARK   71  A    between atoms: CA_172  and  CB_175 
REMARK       I    between atoms: C_173  and  N_179 
REMARK   72  A    between atoms: CB_175  and  SG_176 
REMARK   73  A    between atoms: N_179  and  CA_180 
REMARK   74  A    between atoms: CA_180  and  C_181 
REMARK   75  A    between atoms: CA_180  and  CB_183 
REMARK       I    between atoms: C_181  and  N_192 
REMARK   76  A    between atoms: CB_183  and  CG_184 
REMARK   77  A    between atoms: CG_184  and  CD_185 
REMARK   78  A    between atoms: CD_185  and  CE_186 
REMARK   79  A    between atoms: CE_186  and  NZ_187 
REMARK   80  A    between atoms: N_192  and  CA_193 
REMARK   81  A    between atoms: CA_193  and  C_194 
REMARK   82  A    between atoms: CA_193  and  CB_196 
REMARK       I    between atoms: C_194  and  N_200 
REMARK   83  A    between atoms: CB_196  and  OG_197 
REMARK   84  A    between atoms: N_200  and  CA_201 
REMARK   85  A    between atoms: CA_201  and  C_202 
REMARK   86  A    between atoms: CA_201  and  CB_204 
REMARK       I    between atoms: C_202  and  N_209 
REMARK   87  A    between atoms: CB_204  and  CG_205 
REMARK   88  A    between atoms: N_209  and  CA_210 
REMARK   89  A    between atoms: CA_210  and  C_211 
REMARK   90  A    between atoms: CA_210  and  CB_213 
REMARK       I    between atoms: C_211  and  N_222 
REMARK   91  A    between atoms: CB_213  and  CG_214 
REMARK   92  A    between atoms: CG_214  and  CD_215 
REMARK   93  A    between atoms: CD_215  and  CE_216 
REMARK   94  A    between atoms: CE_216  and  NZ_217 
REMARK   95  A    between atoms: N_222  and  CA_223 
REMARK   96  A    between atoms: CA_223  and  CB_226 
REMARK   97  A    between atoms: CA_223  and  C_224 
REMARK   98  A    between atoms: CB_226  and  CG_227 
ROOT
ATOM      1  N   LYS     1      57.657  41.332  57.858  1.00  0.00    -0.058 N 
ATOM      2  H1  LYS     1      57.212  41.286  58.753  1.00 99.99     0.276 HD
ATOM      3  H2  LYS     1      58.203  42.146  57.828  1.00 99.99     0.276 HD
ATOM      4  H3  LYS     1      56.970  41.439  57.160  1.00 99.99     0.276 HD
ENDROOT
BRANCH   1   5
ATOM      5  CA  LYS     1      58.470  40.098  57.707  1.00  0.00     0.255 C 
BRANCH   5   6
ATOM      6  CB  LYS     1      57.963  38.980  58.640  1.00  0.00     0.040 C 
BRANCH   6   7
ATOM      7  CG  LYS     1      59.041  38.382  59.564  1.00  0.00     0.004 C 
BRANCH   7   8
ATOM      8  CD  LYS     1      59.899  37.333  58.845  1.00  0.00     0.032 C 
BRANCH   8   9
ATOM      9  CE  LYS     1      60.229  36.141  59.752  1.00  0.00     0.206 C 
BRANCH   9  10
ATOM     10  NZ  LYS     1      61.424  35.410  59.294  1.00  0.00    -0.064 N 
ATOM     11  HZ1 LYS     1      62.170  35.542  59.948  1.00 99.99     0.275 HD
ATOM     12  HZ2 LYS     1      61.218  34.435  59.224  1.00 99.99     0.275 HD
ATOM     13  HZ3 LYS     1      61.710  35.756  58.400  1.00 99.99     0.275 HD
ENDBRANCH   9  10
ENDBRANCH   8   9
ENDBRANCH   7   8
ENDBRANCH   6   7
ENDBRANCH   5   6
BRANCH   5  14
ATOM     14  C   LYS     1      58.342  39.651  56.241  1.00  0.00     0.259 C 
ATOM     15  N   SER     2      58.481  40.609  55.336  1.00  0.00    -0.336 N 
ATOM     16  H   SER     2      58.687  41.558  55.569  1.00 99.99     0.164 HD
ATOM     17  O   LYS     1      57.971  38.509  55.963  1.00  0.00    -0.271 OA
BRANCH  15  18
ATOM     18  CA  SER     2      58.348  40.360  53.888  1.00  0.00     0.189 C 
BRANCH  18  19
ATOM     19  CB  SER     2      57.348  41.364  53.283  1.00  0.00     0.169 C 
BRANCH  19  20
ATOM     20  OG  SER     2      58.009  42.431  52.572  1.00  0.00    -0.380 OA
ATOM     21  HG  SER     2      57.575  43.325  52.697  1.00 99.99     0.211 HD
ENDBRANCH  19  20
ENDBRANCH  18  19
BRANCH  18  22
ATOM     22  C   SER     2      59.749  40.538  53.278  1.00  0.00     0.253 C 
ATOM     23  O   SER     2      60.003  40.084  52.163  1.00  0.00    -0.270 OA
ATOM     24  N   LEU     3      60.580  41.389  53.880  1.00  0.00    -0.337 N 
ATOM     25  H   LEU     3      60.272  42.105  54.500  1.00 99.99     0.164 HD
BRANCH  24  26
ATOM     26  CA  LEU     3      61.998  41.437  53.468  1.00  0.00     0.159 C 
BRANCH  26  27
ATOM     27  C   LEU     3      62.150  41.973  52.029  1.00  0.00     0.251 C 
ATOM     28  O   LEU     3      63.016  41.538  51.267  1.00  0.00    -0.271 OA
ATOM     29  N   ARG     4      61.235  42.855  51.639  1.00  0.00    -0.338 N 
ATOM     30  H   ARG     4      60.466  43.096  52.228  1.00 99.99     0.164 HD
BRANCH  29  31
ATOM     31  CA  ARG     4      61.290  43.563  50.348  1.00  0.00     0.160 C 
BRANCH  31  32
ATOM     32  CB  ARG     4      62.716  44.067  50.088  1.00  0.00     0.034 C 
BRANCH  32  33
ATOM     33  CG  ARG     4      63.026  45.347  50.874  1.00  0.00     0.027 C 
BRANCH  33  34
ATOM     34  CD  ARG     4      63.412  46.513  49.959  1.00  0.00     0.116 C 
BRANCH  34  35
ATOM     35  NE  ARG     4      64.382  46.089  48.934  1.00  0.00    -0.212 N 
ATOM     36  CZ  ARG     4      65.713  46.138  49.027  1.00  0.00     0.666 C 
ATOM     37  NH1 ARG     4      66.327  46.576  50.126  1.00  0.00    -0.235 N 
ATOM     38  NH2 ARG     4      66.467  45.803  47.993  1.00  0.00    -0.235 N 
ATOM     39 2HH1 ARG     4      65.775  46.867  50.903  1.00 99.99     0.174 HD
ATOM     40 1HH1 ARG     4      67.322  46.599  50.170  1.00 99.99     0.174 HD
ATOM     41 1HH2 ARG     4      67.461  45.844  48.071  1.00 99.99     0.174 HD
ATOM     42 2HH2 ARG     4      66.049  45.517  47.131  1.00 99.99     0.174 HD
ATOM     43  HE  ARG     4      63.981  45.701  48.105  1.00 99.99     0.178 HD
ENDBRANCH  34  35
ENDBRANCH  33  34
ENDBRANCH  32  33
ENDBRANCH  31  32
BRANCH  31  44
ATOM     44  C   ARG     4      60.872  42.584  49.235  1.00  0.00     0.254 C 
ATOM     45  N   PRO     5      61.674  42.406  48.169  1.00  0.00    -0.312 N 
ATOM     46  CD  PRO     5      62.985  43.060  47.975  1.00  0.00     0.105 C 
ATOM     47  CA  PRO     5      61.356  41.548  46.996  1.00  0.00     0.163 C 
ATOM     48  CG  PRO     5      63.610  42.339  46.780  1.00  0.00     0.027 C 
ATOM     49  CB  PRO     5      62.393  41.956  45.941  1.00  0.00     0.034 C 
ATOM     50  O   ARG     4      59.837  41.943  49.431  1.00  0.00    -0.270 OA
BRANCH  47  51
ATOM     51  C   PRO     5      61.273  40.021  47.224  1.00  0.00     0.251 C 
ATOM     52  N   ARG     6      61.794  39.631  48.384  1.00  0.00    -0.338 N 
ATOM     53  H   ARG     6      62.328  40.302  48.897  1.00 99.99     0.164 HD
ATOM     54  O   PRO     5      60.948  39.238  46.337  1.00  0.00    -0.271 OA
BRANCH  52  55
ATOM     55  CA  ARG     6      61.702  38.323  49.060  1.00  0.00     0.159 C 
BRANCH  55  56
ATOM     56  CB  ARG     6      62.234  38.413  50.497  1.00  0.00     0.034 C 
BRANCH  56  57
ATOM     57  CG  ARG     6      62.379  37.044  51.169  1.00  0.00     0.027 C 
BRANCH  57  58
ATOM     58  CD  ARG     6      61.385  36.871  52.324  1.00  0.00     0.116 C 
BRANCH  58  59
ATOM     59  NE  ARG     6      62.056  36.340  53.521  1.00  0.00    -0.212 N 
ATOM     60  CZ  ARG     6      61.674  36.516  54.797  1.00  0.00     0.666 C 
ATOM     61  NH2 ARG     6      62.306  35.878  55.768  1.00  0.00    -0.235 N 
ATOM     62  NH1 ARG     6      60.624  37.256  55.120  1.00  0.00    -0.235 N 
ATOM     63 2HH2 ARG     6      63.061  35.258  55.570  1.00 99.99     0.174 HD
ATOM     64 1HH2 ARG     6      62.014  36.017  56.714  1.00 99.99     0.174 HD
ATOM     65 1HH1 ARG     6      60.363  37.372  56.077  1.00 99.99     0.174 HD
ATOM     66 2HH1 ARG     6      60.093  37.693  54.396  1.00 99.99     0.174 HD
ATOM     67  HE  ARG     6      62.871  35.798  53.344  1.00 99.99     0.178 HD
ENDBRANCH  58  59
ENDBRANCH  57  58
ENDBRANCH  56  57
ENDBRANCH  55  56
BRANCH  55  68
ATOM     68  C   ARG     6      60.253  37.794  49.107  1.00  0.00     0.251 C 
ATOM     69  N   CYS     7      59.938  36.786  48.278  1.00  0.00    -0.337 N 
ATOM     70  H   CYS     7      60.628  36.329  47.714  1.00 99.99     0.164 HD
ATOM     71  O   ARG     6      59.415  38.345  49.817  1.00  0.00    -0.271 OA
BRANCH  69  72
ATOM     72  CA  CYS     7      58.589  36.207  48.135  1.00  0.00     0.170 C 
BRANCH  72  73
ATOM     73  CB  CYS     7      58.170  35.537  49.459  1.00  0.00     0.085 C 
BRANCH  73  74
ATOM     74  SG  CYS     7      56.878  34.240  49.395  1.00  0.00    -0.165 SA
ATOM     75  HG  CYS     7      56.144  34.800  48.441  1.00 99.99     0.102 HD
ENDBRANCH  73  74
ENDBRANCH  72  73
BRANCH  72  76
ATOM     76  C   CYS     7      57.558  37.311  47.797  1.00  0.00     0.252 C 
ATOM     77  O   CYS     7      56.445  37.329  48.326  1.00  0.00    -0.271 OA
ATOM     78  N   TRP     8      57.937  38.250  46.931  1.00  0.00    -0.337 N 
ATOM     79  H   TRP     8      58.870  38.324  46.582  1.00 99.99     0.164 HD
BRANCH  78  80
ATOM     80  CA  TRP     8      57.009  39.325  46.508  1.00  0.00     0.164 C 
BRANCH  80  81
ATOM     81  CB  TRP     8      57.759  40.612  46.146  1.00  0.00     0.059 C 
BRANCH  81  82
ATOM     82  CG  TRP     8      57.360  41.816  47.009  1.00  0.00    -0.016 A 
ATOM     83  CD1 TRP     8      57.676  43.093  46.827  1.00  0.00     0.097 A 
ATOM     84  NE1 TRP     8      57.101  43.837  47.775  1.00  0.00    -0.365 N 
ATOM     85  HE1 TRP     8      57.267  44.811  47.911  1.00 99.99     0.165 HD
ATOM     86  CE2 TRP     8      56.400  43.045  48.587  1.00  0.00     0.042 A 
ATOM     87  CZ2 TRP     8      55.634  43.289  49.717  1.00  0.00     0.030 A 
ATOM     88  CD2 TRP     8      56.561  41.746  48.138  1.00  0.00    -0.001 A 
ATOM     89  CH2 TRP     8      55.051  42.225  50.404  1.00  0.00     0.002 A 
ATOM     90  CZ3 TRP     8      55.241  40.924  49.964  1.00  0.00     0.001 A 
ATOM     91  CE3 TRP     8      55.996  40.683  48.823  1.00  0.00     0.014 A 
ENDBRANCH  81  82
ENDBRANCH  80  81
BRANCH  80  92
ATOM     92  C   TRP     8      56.052  38.894  45.392  1.00  0.00     0.251 C 
ATOM     93  O   TRP     8      55.161  39.619  44.950  1.00  0.00    -0.271 OA
ATOM     94  N   ILE     9      56.216  37.625  45.023  1.00  0.00    -0.338 N 
ATOM     95  H   ILE     9      56.859  37.029  45.503  1.00 99.99     0.164 HD
BRANCH  94  96
ATOM     96  CA  ILE     9      55.502  36.998  43.895  1.00  0.00     0.159 C 
BRANCH  96  97
ATOM     97  CB  ILE     9      54.083  36.576  44.349  1.00  0.00     0.029 C 
ATOM     98  CG2 ILE     9      53.611  35.336  43.570  1.00  0.00     0.002 C 
BRANCH  97  99
ATOM     99  CG1 ILE     9      54.060  36.293  45.864  1.00  0.00     0.002 C 
ATOM    100  CD  ILE     9      52.883  36.927  46.619  1.00  0.00     0.000 C 
ENDBRANCH  97  99
ENDBRANCH  96  97
BRANCH  96 101
ATOM    101  C   ILE     9      55.502  37.911  42.650  1.00  0.00     0.251 C 
ATOM    102  N   LYS    10      56.659  38.538  42.428  1.00  0.00    -0.338 N 
ATOM    103  H   LYS    10      57.374  38.510  43.129  1.00 99.99     0.164 HD
ATOM    104  O   ILE     9      54.454  38.174  42.061  1.00  0.00    -0.271 OA
BRANCH 102 105
ATOM    105  CA  LYS    10      57.022  39.337  41.233  1.00  0.00     0.159 C 
BRANCH 105 106
ATOM    106  C   LYS    10      57.466  38.532  39.983  1.00  0.00     0.251 C 
ATOM    107  O   LYS    10      58.328  37.656  40.034  1.00  0.00    -0.271 OA
ATOM    108  N   ILE    11      56.936  38.913  38.819  1.00  0.00    -0.338 N 
ATOM    109  H   ILE    11      56.294  39.674  38.759  1.00 99.99     0.164 HD
BRANCH 108 110
ATOM    110  CA  ILE    11      57.251  38.243  37.536  1.00  0.00     0.159 C 
BRANCH 110 111
ATOM    111  C   ILE    11      58.390  38.917  36.744  1.00  0.00     0.251 C 
ATOM    112  N   LYS    12      58.993  39.943  37.350  1.00  0.00    -0.338 N 
ATOM    113  H   LYS    12      58.615  40.351  38.179  1.00 99.99     0.164 HD
ATOM    114  O   ILE    11      58.719  38.500  35.635  1.00  0.00    -0.271 OA
BRANCH 112 115
ATOM    115  CA  LYS    12      60.187  40.623  36.798  1.00  0.00     0.159 C 
BRANCH 115 116
ATOM    116  C   LYS    12      61.504  39.949  37.232  1.00  0.00     0.251 C 
ATOM    117  O   LYS    12      61.717  38.749  37.066  1.00  0.00    -0.271 OA
ATOM    118  N   PHE    13      62.397  40.756  37.809  1.00  0.00    -0.337 N 
ATOM    119  H   PHE    13      62.160  41.680  38.100  1.00 99.99     0.164 HD
BRANCH 118 120
ATOM    120  CA  PHE    13      63.742  40.290  38.209  1.00  0.00     0.164 C 
BRANCH 120 121
ATOM    121  CB  PHE    13      64.809  40.736  37.195  1.00  0.00     0.056 C 
BRANCH 121 122
ATOM    122  CG  PHE    13      64.786  42.231  36.866  1.00  0.00    -0.044 A 
ATOM    123  CD1 PHE    13      65.969  42.888  36.541  1.00  0.00     0.008 A 
ATOM    124  CE1 PHE    13      65.958  44.245  36.267  1.00  0.00     0.001 A 
ATOM    125  CZ  PHE    13      64.762  44.959  36.316  1.00  0.00     0.000 A 
ATOM    126  CE2 PHE    13      63.578  44.297  36.626  1.00  0.00     0.001 A 
ATOM    127  CD2 PHE    13      63.590  42.940  36.905  1.00  0.00     0.008 A 
ENDBRANCH 121 122
ENDBRANCH 120 121
BRANCH 120 128
ATOM    128  C   PHE    13      64.138  40.690  39.641  1.00  0.00     0.251 C 
ATOM    129  N   ARG    14      64.964  39.837  40.248  1.00  0.00    -0.338 N 
ATOM    130  H   ARG    14      65.073  38.908  39.905  1.00 99.99     0.164 HD
ATOM    131  O   PHE    13      63.664  41.684  40.182  1.00  0.00    -0.271 OA
BRANCH 129 132
ATOM    132  CA  ARG    14      65.562  40.120  41.569  1.00  0.00     0.159 C 
BRANCH 132 133
ATOM    133  CB  ARG    14      66.094  41.561  41.652  1.00  0.00     0.034 C 
BRANCH 133 134
ATOM    134  CG  ARG    14      67.611  41.651  41.430  1.00  0.00     0.027 C 
BRANCH 134 135
ATOM    135  CD  ARG    14      67.958  42.080  39.998  1.00  0.00     0.116 C 
BRANCH 135 136
ATOM    136  NE  ARG    14      69.394  42.377  39.881  1.00  0.00    -0.212 N 
ATOM    137  CZ  ARG    14      69.980  43.569  40.071  1.00  0.00     0.666 C 
ATOM    138  NH1 ARG    14      69.303  44.635  40.469  1.00  0.00    -0.235 N 
ATOM    139  NH2 ARG    14      71.267  43.721  39.801  1.00  0.00    -0.235 N 
ATOM    140 2HH1 ARG    14      68.324  44.554  40.671  1.00 99.99     0.174 HD
ATOM    141 1HH1 ARG    14      69.762  45.511  40.601  1.00 99.99     0.174 HD
ATOM    142 2HH2 ARG    14      71.809  42.958  39.459  1.00 99.99     0.174 HD
ATOM    143 1HH2 ARG    14      71.690  44.615  39.941  1.00 99.99     0.174 HD
ATOM    144  HE  ARG    14      69.967  41.601  39.634  1.00 99.99     0.178 HD
ENDBRANCH 135 136
ENDBRANCH 134 135
ENDBRANCH 133 134
ENDBRANCH 132 133
BRANCH 132 145
ATOM    145  C   ARG    14      64.689  39.790  42.793  1.00  0.00     0.251 C 
ATOM    146  N   CYS    15      65.110  38.814  43.599  1.00  0.00    -0.337 N 
ATOM    147  H   CYS    15      66.001  38.383  43.491  1.00 99.99     0.164 HD
ATOM    148  O   ARG    14      63.672  40.439  43.018  1.00  0.00    -0.271 OA
BRANCH 146 149
ATOM    149  CA  CYS    15      64.349  38.355  44.780  1.00  0.00     0.170 C 
BRANCH 149 150
ATOM    150  C   CYS    15      65.056  38.597  46.125  1.00  0.00     0.252 C 
ATOM    151  N   LYS    16      66.387  38.611  46.043  1.00  0.00    -0.337 N 
ATOM    152  H   LYS    16      66.858  38.404  45.190  1.00 99.99     0.164 HD
ATOM    153  O   CYS    15      64.435  38.984  47.111  1.00  0.00    -0.271 OA
BRANCH 151 154
ATOM    154  CA  LYS    16      67.276  38.857  47.199  1.00  0.00     0.159 C 
BRANCH 154 155
ATOM    155  C   LYS    16      67.182  37.766  48.283  1.00  0.00     0.251 C 
ATOM    156  N   SER    17      66.321  38.023  49.270  1.00  0.00    -0.336 N 
ATOM    157  H   SER    17      65.789  38.871  49.281  1.00 99.99     0.164 HD
ATOM    158  O   LYS    16      67.902  36.764  48.275  1.00  0.00    -0.271 OA
BRANCH 156 159
ATOM    159  CA  SER    17      66.031  37.082  50.369  1.00  0.00     0.189 C 
BRANCH 159 160
ATOM    160  C   SER    17      67.112  37.135  51.459  1.00  0.00     0.253 C 
ATOM    161  O   SER    17      67.229  36.191  52.232  1.00  0.00    -0.270 OA
ATOM    162  N   LEU    18      67.755  38.296  51.623  1.00  0.00    -0.337 N 
ATOM    163  H   LEU    18      67.514  39.078  51.045  1.00 99.99     0.164 HD
BRANCH 162 164
ATOM    164  CA  LEU    18      68.838  38.530  52.591  1.00  0.00     0.159 C 
BRANCH 164 165
ATOM    165  C   LEU    18      68.586  39.708  53.540  1.00  0.00     0.251 C 
ATOM    166  O   LEU    18      67.506  40.289  53.583  1.00  0.00    -0.271 OA
ATOM    167  N   LYS    19      69.614  39.939  54.353  1.00  0.00    -0.338 N 
ATOM    168  H   LYS    19      70.423  39.357  54.340  1.00 99.99     0.164 HD
BRANCH 167 169
ATOM    169  CA  LYS    19      69.707  41.062  55.298  1.00  0.00     0.159 C 
BRANCH 169 170
ATOM    170  C   LYS    19      68.757  40.804  56.468  1.00  0.00     0.251 C 
ATOM    171  N   PHE    20      68.855  39.594  57.000  1.00  0.00    -0.336 N 
ATOM    172  H   PHE    20      69.456  38.897  56.609  1.00 99.99     0.164 HD
ATOM    173  O   LYS    19      67.942  41.656  56.826  1.00  0.00    -0.271 OA
BRANCH 171 174
ATOM    174  CA  PHE    20      68.123  39.189  58.215  1.00  0.00     0.172 C 
BRANCH 174 175
ATOM    175  CB  PHE    20      66.839  38.437  57.844  1.00  0.00     0.058 C 
BRANCH 175 176
ATOM    176  CG  PHE    20      65.569  39.098  58.401  1.00  0.00    -0.044 A 
ATOM    177  CD2 PHE    20      65.628  40.360  58.978  1.00  0.00     0.008 A 
ATOM    178  CE2 PHE    20      64.485  40.937  59.520  1.00  0.00     0.001 A 
ATOM    179  CZ  PHE    20      63.275  40.252  59.489  1.00  0.00     0.000 A 
ATOM    180  CE1 PHE    20      63.211  38.994  58.894  1.00  0.00     0.001 A 
ATOM    181  CD1 PHE    20      64.357  38.421  58.353  1.00  0.00     0.008 A 
ENDBRANCH 175 176
ENDBRANCH 174 175
BRANCH 174 182
ATOM    182  C   PHE    20      69.036  38.304  59.077  1.00  0.00     0.207 C 
ATOM    183  OXT PHE    20      69.439  37.239  58.565  1.00 99.99    -0.646 OA
ATOM    184  O   PHE    20      69.582  38.839  60.053  1.00 99.99    -0.646 OA
ENDBRANCH 174 182
ENDBRANCH 171 174
ENDBRANCH 169 170
BRANCH 169 185
ATOM    185  CB  LYS    19      69.298  42.377  54.620  1.00  0.00     0.032 C 
BRANCH 185 186
ATOM    186  CG  LYS    19      70.377  43.461  54.692  1.00  0.00     0.004 C 
BRANCH 186 187
ATOM    187  CD  LYS    19      69.783  44.854  54.932  1.00  0.00     0.032 C 
BRANCH 187 188
ATOM    188  CE  LYS    19      68.503  44.778  55.765  1.00  0.00     0.206 C 
BRANCH 188 189
ATOM    189  NZ  LYS    19      68.824  44.742  57.200  1.00  0.00    -0.064 N 
ATOM    190  HZ3 LYS    19      68.332  45.472  57.680  1.00 99.99     0.275 HD
ATOM    191  HZ1 LYS    19      68.573  43.861  57.596  1.00 99.99     0.275 HD
ATOM    192  HZ2 LYS    19      69.805  44.906  57.329  1.00 99.99     0.275 HD
ENDBRANCH 188 189
ENDBRANCH 187 188
ENDBRANCH 186 187
ENDBRANCH 185 186
ENDBRANCH 169 185
ENDBRANCH 167 169
ENDBRANCH 164 165
BRANCH 164 193
ATOM    193  CB  LEU    18      70.165  38.754  51.850  1.00  0.00     0.032 C 
BRANCH 193 194
ATOM    194  CG  LEU    18      71.049  37.502  51.792  1.00  0.00     0.002 C 
ATOM    195  CD1 LEU    18      70.862  36.686  53.071  1.00  0.00     0.000 C 
ATOM    196  CD2 LEU    18      70.705  36.630  50.577  1.00  0.00     0.000 C 
ENDBRANCH 193 194
ENDBRANCH 164 193
ENDBRANCH 162 164
ENDBRANCH 159 160
BRANCH 159 197
ATOM    197  CB  SER    17      65.768  35.659  49.845  1.00  0.00     0.169 C 
BRANCH 197 198
ATOM    198  OG  SER    17      66.933  34.827  49.920  1.00  0.00    -0.380 OA
ATOM    199  HG  SER    17      67.251  34.870  50.870  1.00 99.99     0.211 HD
ENDBRANCH 197 198
ENDBRANCH 159 197
ENDBRANCH 156 159
ENDBRANCH 154 155
BRANCH 154 200
ATOM    200  CB  LYS    16      66.996  40.251  47.783  1.00  0.00     0.032 C 
BRANCH 200 201
ATOM    201  CG  LYS    16      67.254  41.394  46.798  1.00  0.00     0.004 C 
BRANCH 201 202
ATOM    202  CD  LYS    16      68.003  42.517  47.519  1.00  0.00     0.032 C 
BRANCH 202 203
ATOM    203  CE  LYS    16      69.324  42.862  46.831  1.00  0.00     0.206 C 
BRANCH 203 204
ATOM    204  NZ  LYS    16      70.093  41.640  46.551  1.00  0.00    -0.064 N 
ATOM    205  HZ1 LYS    16      69.541  40.837  46.776  1.00 99.99     0.275 HD
ATOM    206  HZ2 LYS    16      70.338  41.615  45.581  1.00 99.99     0.275 HD
ATOM    207  HZ3 LYS    16      70.926  41.636  47.105  1.00 99.99     0.275 HD
ENDBRANCH 203 204
ENDBRANCH 202 203
ENDBRANCH 201 202
ENDBRANCH 200 201
ENDBRANCH 154 200
ENDBRANCH 151 154
ENDBRANCH 149 150
BRANCH 149 208
ATOM    208  CB  CYS    15      63.990  36.873  44.614  1.00  0.00     0.085 C 
BRANCH 208 209
ATOM    209  SG  CYS    15      62.915  36.199  45.935  1.00  0.00    -0.165 SA
ATOM    210  HG  CYS    15      62.360  37.361  46.262  1.00 99.99     0.102 HD
ENDBRANCH 208 209
ENDBRANCH 149 208
ENDBRANCH 146 149
ENDBRANCH 132 145
ENDBRANCH 129 132
ENDBRANCH 120 128
ENDBRANCH 118 120
ENDBRANCH 115 116
BRANCH 115 211
ATOM    211  CB  LYS    12      60.197  42.115  37.179  1.00  0.00     0.032 C 
BRANCH 211 212
ATOM    212  CG  LYS    12      58.811  42.763  37.226  1.00  0.00     0.004 C 
BRANCH 212 213
ATOM    213  CD  LYS    12      58.782  43.982  36.300  1.00  0.00     0.032 C 
BRANCH 213 214
ATOM    214  CE  LYS    12      59.012  43.590  34.838  1.00  0.00     0.206 C 
BRANCH 214 215
ATOM    215  NZ  LYS    12      57.865  42.839  34.307  1.00  0.00    -0.064 N 
ATOM    216  HZ3 LYS    12      57.335  43.426  33.696  1.00 99.99     0.275 HD
ATOM    217  HZ2 LYS    12      57.285  42.534  35.063  1.00 99.99     0.275 HD
ATOM    218  HZ1 LYS    12      58.194  42.043  33.799  1.00 99.99     0.275 HD
ENDBRANCH 214 215
ENDBRANCH 213 214
ENDBRANCH 212 213
ENDBRANCH 211 212
ENDBRANCH 115 211
ENDBRANCH 112 115
ENDBRANCH 110 111
BRANCH 110 219
ATOM    219  CB  ILE    11      55.997  38.061  36.654  1.00  0.00     0.029 C 
ATOM    220  CG2 ILE    11      55.743  39.352  35.860  1.00  0.00     0.002 C 
BRANCH 219 221
ATOM    221  CG1 ILE    11      56.069  36.817  35.749  1.00  0.00     0.002 C 
ATOM    222  CD  ILE    11      56.392  35.526  36.514  1.00  0.00     0.000 C 
ENDBRANCH 219 221
ENDBRANCH 110 219
ENDBRANCH 108 110
ENDBRANCH 105 106
BRANCH 105 223
ATOM    223  CB  LYS    10      58.046  40.405  41.668  1.00  0.00     0.032 C 
BRANCH 223 224
ATOM    224  CG  LYS    10      58.172  41.561  40.670  1.00  0.00     0.004 C 
BRANCH 224 225
ATOM    225  CD  LYS    10      59.430  42.389  40.934  1.00  0.00     0.032 C 
BRANCH 225 226
ATOM    226  CE  LYS    10      60.392  41.622  41.845  1.00  0.00     0.206 C 
BRANCH 226 227
ATOM    227  NZ  LYS    10      61.545  42.454  42.216  1.00  0.00    -0.064 N 
ATOM    228  HZ2 LYS    10      61.409  43.381  41.868  1.00 99.99     0.275 HD
ATOM    229  HZ3 LYS    10      61.631  42.480  43.212  1.00 99.99     0.275 HD
ATOM    230  HZ1 LYS    10      62.376  42.065  41.820  1.00 99.99     0.275 HD
ENDBRANCH 226 227
ENDBRANCH 225 226
ENDBRANCH 224 225
ENDBRANCH 223 224
ENDBRANCH 105 223
ENDBRANCH 102 105
ENDBRANCH  96 101
ENDBRANCH  94  96
ENDBRANCH  80  92
ENDBRANCH  78  80
ENDBRANCH  72  76
ENDBRANCH  69  72
ENDBRANCH  55  68
ENDBRANCH  52  55
ENDBRANCH  47  51
ENDBRANCH  31  44
ENDBRANCH  29  31
ENDBRANCH  26  27
BRANCH  26 231
ATOM    231  CB  LEU     3      62.666  40.067  53.692  1.00  0.00     0.032 C 
BRANCH 231 232
ATOM    232  CG  LEU     3      64.024  40.173  54.401  1.00  0.00     0.002 C 
ATOM    233  CD2 LEU     3      64.575  38.791  54.771  1.00  0.00     0.000 C 
ATOM    234  CD1 LEU     3      63.885  41.021  55.666  1.00  0.00     0.000 C 
ENDBRANCH 231 232
ENDBRANCH  26 231
ENDBRANCH  24  26
ENDBRANCH  18  22
ENDBRANCH  15  18
ENDBRANCH   5  14
ENDBRANCH   1   5
TORSDOF 98
ENDMDL
MODEL 3
REMARK VINA RESULT:      -2.6      1.661      2.325
REMARK WARNING: 32 MAX_TORS EXCEEDED!!!
REMARK  98 active torsions:
REMARK  status: ('A' for Active; 'I' for Inactive)
REMARK    1  A    between atoms: N_1  and  CA_2 
REMARK    2  A    between atoms: CA_2  and  CB_5 
REMARK    3  A    between atoms: CA_2  and  C_3 
REMARK       I    between atoms: C_3  and  N_16 
REMARK    4  A    between atoms: CB_5  and  CG_6 
REMARK    5  A    between atoms: CG_6  and  CD_7 
REMARK    6  A    between atoms: CD_7  and  CE_8 
REMARK    7  A    between atoms: CE_8  and  NZ_9 
REMARK    8  A    between atoms: N_16  and  CA_17 
REMARK    9  A    between atoms: CA_17  and  CB_20 
REMARK   10  A    between atoms: CA_17  and  C_18 
REMARK       I    between atoms: C_18  and  N_24 
REMARK   11  A    between atoms: CB_20  and  OG_21 
REMARK   12  A    between atoms: N_24  and  CA_25 
REMARK   13  A    between atoms: CA_25  and  C_26 
REMARK   14  A    between atoms: CA_25  and  CB_28 
REMARK       I    between atoms: C_26  and  N_33 
REMARK   15  A    between atoms: CB_28  and  CG_29 
REMARK   16  A    between atoms: N_33  and  CA_34 
REMARK   17  A    between atoms: CA_34  and  CB_37 
REMARK   18  A    between atoms: CA_34  and  C_35 
REMARK       I    between atoms: C_35  and  N_50 
REMARK   19  A    between atoms: CB_37  and  CG_38 
REMARK   20  A    between atoms: CG_38  and  CD_39 
REMARK   21  A    between atoms: CD_39  and  NE_40 
REMARK       I    between atoms: NE_40  and  CZ_41 
REMARK       I    between atoms: CZ_41  and  NH1_42 
REMARK       I    between atoms: CZ_41  and  NH2_43 
REMARK   22  A    between atoms: CA_51  and  C_52 
REMARK       I    between atoms: C_52  and  N_57 
REMARK   23  A    between atoms: N_57  and  CA_58 
REMARK   24  A    between atoms: CA_58  and  CB_61 
REMARK   25  A    between atoms: CA_58  and  C_59 
REMARK       I    between atoms: C_59  and  N_74 
REMARK   26  A    between atoms: CB_61  and  CG_62 
REMARK   27  A    between atoms: CG_62  and  CD_63 
REMARK   28  A    between atoms: CD_63  and  NE_64 
REMARK       I    between atoms: NE_64  and  CZ_65 
REMARK       I    between atoms: CZ_65  and  NH2_67 
REMARK       I    between atoms: CZ_65  and  NH1_66 
REMARK   29  A    between atoms: N_74  and  CA_75 
REMARK   30  A    between atoms: CA_75  and  CB_78 
REMARK   31  A    between atoms: CA_75  and  C_76 
REMARK       I    between atoms: C_76  and  N_82 
REMARK   32  A    between atoms: CB_78  and  SG_79 
REMARK   33  A    between atoms: N_82  and  CA_83 
REMARK   34  A    between atoms: CA_83  and  CB_86 
REMARK   35  A    between atoms: CA_83  and  C_84 
REMARK       I    between atoms: C_84  and  N_98 
REMARK   36  A    between atoms: CB_86  and  CG_87 
REMARK   37  A    between atoms: N_98  and  CA_99 
REMARK   38  A    between atoms: CA_99  and  CB_102 
REMARK   39  A    between atoms: CA_99  and  C_100 
REMARK       I    between atoms: C_100  and  N_107 
REMARK   40  A    between atoms: CB_102  and  CG1_103 
REMARK   41  A    between atoms: N_107  and  CA_108 
REMARK   42  A    between atoms: CA_108  and  C_109 
REMARK   43  A    between atoms: CA_108  and  CB_111 
REMARK       I    between atoms: C_109  and  N_120 
REMARK   44  A    between atoms: CB_111  and  CG_112 
REMARK   45  A    between atoms: CG_112  and  CD_113 
REMARK   46  A    between atoms: CD_113  and  CE_114 
REMARK   47  A    between atoms: CE_114  and  NZ_115 
REMARK   48  A    between atoms: N_120  and  CA_121 
REMARK   49  A    between atoms: CA_121  and  C_122 
REMARK   50  A    between atoms: CA_121  and  CB_124 
REMARK       I    between atoms: C_122  and  N_129 
REMARK   51  A    between atoms: CB_124  and  CG1_125 
REMARK   52  A    between atoms: N_129  and  CA_130 
REMARK   53  A    between atoms: CA_130  and  C_131 
REMARK   54  A    between atoms: CA_130  and  CB_133 
REMARK       I    between atoms: C_131  and  N_142 
REMARK   55  A    between atoms: CB_133  and  CG_134 
REMARK   56  A    between atoms: CG_134  and  CD_135 
REMARK   57  A    between atoms: CD_135  and  CE_136 
REMARK   58  A    between atoms: CE_136  and  NZ_137 
REMARK   59  A    between atoms: N_142  and  CA_143 
REMARK   60  A    between atoms: CA_143  and  CB_146 
REMARK   61  A    between atoms: CA_143  and  C_144 
REMARK       I    between atoms: C_144  and  N_154 
REMARK   62  A    between atoms: CB_146  and  CG_147 
REMARK   63  A    between atoms: N_154  and  CA_155 
REMARK   64  A    between atoms: CA_155  and  CB_158 
REMARK   65  A    between atoms: CA_155  and  C_156 
REMARK       I    between atoms: C_156  and  N_171 
REMARK   66  A    between atoms: CB_158  and  CG_159 
REMARK   67  A    between atoms: CG_159  and  CD_160 
REMARK   68  A    between atoms: CD_160  and  NE_161 
REMARK       I    between atoms: NE_161  and  CZ_162 
REMARK       I    between atoms: CZ_162  and  NH1_163 
REMARK   69  A    between atoms: N_171  and  CA_172 
REMARK   70  A    between atoms: CA_172  and  C_173 
REMARK   71  A    between atoms: CA_172  and  CB_175 
REMARK       I    between atoms: C_173  and  N_179 
REMARK   72  A    between atoms: CB_175  and  SG_176 
REMARK   73  A    between atoms: N_179  and  CA_180 
REMARK   74  A    between atoms: CA_180  and  C_181 
REMARK   75  A    between atoms: CA_180  and  CB_183 
REMARK       I    between atoms: C_181  and  N_192 
REMARK   76  A    between atoms: CB_183  and  CG_184 
REMARK   77  A    between atoms: CG_184  and  CD_185 
REMARK   78  A    between atoms: CD_185  and  CE_186 
REMARK   79  A    between atoms: CE_186  and  NZ_187 
REMARK   80  A    between atoms: N_192  and  CA_193 
REMARK   81  A    between atoms: CA_193  and  C_194 
REMARK   82  A    between atoms: CA_193  and  CB_196 
REMARK       I    between atoms: C_194  and  N_200 
REMARK   83  A    between atoms: CB_196  and  OG_197 
REMARK   84  A    between atoms: N_200  and  CA_201 
REMARK   85  A    between atoms: CA_201  and  C_202 
REMARK   86  A    between atoms: CA_201  and  CB_204 
REMARK       I    between atoms: C_202  and  N_209 
REMARK   87  A    between atoms: CB_204  and  CG_205 
REMARK   88  A    between atoms: N_209  and  CA_210 
REMARK   89  A    between atoms: CA_210  and  C_211 
REMARK   90  A    between atoms: CA_210  and  CB_213 
REMARK       I    between atoms: C_211  and  N_222 
REMARK   91  A    between atoms: CB_213  and  CG_214 
REMARK   92  A    between atoms: CG_214  and  CD_215 
REMARK   93  A    between atoms: CD_215  and  CE_216 
REMARK   94  A    between atoms: CE_216  and  NZ_217 
REMARK   95  A    between atoms: N_222  and  CA_223 
REMARK   96  A    between atoms: CA_223  and  CB_226 
REMARK   97  A    between atoms: CA_223  and  C_224 
REMARK   98  A    between atoms: CB_226  and  CG_227 
ROOT
ATOM      1  N   LYS     1      67.560  42.351  56.675  1.00  0.00    -0.058 N 
ATOM      2  H1  LYS     1      67.410  41.573  57.287  1.00 99.99     0.276 HD
ATOM      3  H2  LYS     1      67.940  43.087  57.202  1.00 99.99     0.276 HD
ATOM      4  H3  LYS     1      66.691  42.675  56.344  1.00 99.99     0.276 HD
ENDROOT
BRANCH   1   5
ATOM      5  CA  LYS     1      68.474  41.893  55.598  1.00  0.00     0.255 C 
BRANCH   5   6
ATOM      6  CB  LYS     1      69.814  41.398  56.177  1.00  0.00     0.040 C 
BRANCH   6   7
ATOM      7  CG  LYS     1      70.888  41.080  55.120  1.00  0.00     0.004 C 
BRANCH   7   8
ATOM      8  CD  LYS     1      71.272  42.318  54.298  1.00  0.00     0.032 C 
BRANCH   8   9
ATOM      9  CE  LYS     1      71.259  43.597  55.145  1.00  0.00     0.206 C 
BRANCH   9  10
ATOM     10  NZ  LYS     1      70.906  44.785  54.348  1.00  0.00    -0.064 N 
ATOM     11  HZ1 LYS     1      70.969  44.567  53.373  1.00 99.99     0.275 HD
ATOM     12  HZ2 LYS     1      69.971  45.069  54.560  1.00 99.99     0.275 HD
ATOM     13  HZ3 LYS     1      71.537  45.533  54.557  1.00 99.99     0.275 HD
ENDBRANCH   9  10
ENDBRANCH   8   9
ENDBRANCH   7   8
ENDBRANCH   6   7
ENDBRANCH   5   6
BRANCH   5  14
ATOM     14  C   LYS     1      67.765  40.740  54.867  1.00  0.00     0.259 C 
ATOM     15  N   SER     2      66.846  40.094  55.572  1.00  0.00    -0.336 N 
ATOM     16  H   SER     2      66.593  40.346  56.505  1.00 99.99     0.164 HD
ATOM     17  O   LYS     1      68.160  40.358  53.765  1.00  0.00    -0.271 OA
BRANCH  15  18
ATOM     18  CA  SER     2      66.100  38.939  55.037  1.00  0.00     0.189 C 
BRANCH  18  19
ATOM     19  CB  SER     2      66.952  37.664  55.185  1.00  0.00     0.169 C 
BRANCH  19  20
ATOM     20  OG  SER     2      66.996  36.894  53.966  1.00  0.00    -0.380 OA
ATOM     21  HG  SER     2      67.923  36.759  53.611  1.00 99.99     0.211 HD
ENDBRANCH  19  20
ENDBRANCH  18  19
BRANCH  18  22
ATOM     22  C   SER     2      64.800  38.835  55.853  1.00  0.00     0.253 C 
ATOM     23  O   SER     2      64.545  37.813  56.488  1.00  0.00    -0.270 OA
ATOM     24  N   LEU     3      64.099  39.954  56.039  1.00  0.00    -0.337 N 
ATOM     25  H   LEU     3      64.489  40.865  55.940  1.00 99.99     0.164 HD
BRANCH  24  26
ATOM     26  CA  LEU     3      62.745  39.876  56.625  1.00  0.00     0.159 C 
BRANCH  26  27
ATOM     27  C   LEU     3      61.657  39.829  55.531  1.00  0.00     0.251 C 
ATOM     28  O   LEU     3      60.690  39.069  55.617  1.00  0.00    -0.271 OA
ATOM     29  N   ARG     4      61.781  40.718  54.553  1.00  0.00    -0.338 N 
ATOM     30  H   ARG     4      62.500  41.411  54.572  1.00 99.99     0.164 HD
BRANCH  29  31
ATOM     31  CA  ARG     4      60.910  40.742  53.364  1.00  0.00     0.160 C 
BRANCH  31  32
ATOM     32  CB  ARG     4      60.842  42.165  52.794  1.00  0.00     0.034 C 
BRANCH  32  33
ATOM     33  CG  ARG     4      62.188  42.892  52.897  1.00  0.00     0.027 C 
BRANCH  33  34
ATOM     34  CD  ARG     4      62.558  43.617  51.600  1.00  0.00     0.116 C 
BRANCH  34  35
ATOM     35  NE  ARG     4      62.934  42.662  50.542  1.00  0.00    -0.212 N 
ATOM     36  CZ  ARG     4      62.551  42.697  49.263  1.00  0.00     0.666 C 
ATOM     37  NH1 ARG     4      61.769  43.666  48.788  1.00  0.00    -0.235 N 
ATOM     38  NH2 ARG     4      62.897  41.724  48.437  1.00  0.00    -0.235 N 
ATOM     39 2HH1 ARG     4      61.468  44.390  49.404  1.00 99.99     0.174 HD
ATOM     40 1HH1 ARG     4      61.501  43.670  47.828  1.00 99.99     0.174 HD
ATOM     41 1HH2 ARG     4      62.604  41.757  47.483  1.00 99.99     0.174 HD
ATOM     42 2HH2 ARG     4      63.440  40.951  48.761  1.00 99.99     0.174 HD
ATOM     43  HE  ARG     4      63.564  41.941  50.826  1.00 99.99     0.178 HD
ENDBRANCH  34  35
ENDBRANCH  33  34
ENDBRANCH  32  33
ENDBRANCH  31  32
BRANCH  31  44
ATOM     44  C   ARG     4      61.493  39.783  52.310  1.00  0.00     0.254 C 
ATOM     45  N   PRO     5      60.796  38.690  51.947  1.00  0.00    -0.312 N 
ATOM     46  CD  PRO     5      59.458  38.327  52.459  1.00  0.00     0.105 C 
ATOM     47  CA  PRO     5      61.275  37.651  50.997  1.00  0.00     0.163 C 
ATOM     48  CG  PRO     5      58.992  37.182  51.560  1.00  0.00     0.027 C 
ATOM     49  CB  PRO     5      60.299  36.484  51.194  1.00  0.00     0.034 C 
ATOM     50  O   ARG     4      62.555  40.127  51.786  1.00  0.00    -0.270 OA
BRANCH  47  51
ATOM     51  C   PRO     5      61.458  38.060  49.516  1.00  0.00     0.251 C 
ATOM     52  N   ARG     6      60.602  37.462  48.693  1.00  0.00    -0.338 N 
ATOM     53  H   ARG     6      60.064  36.704  49.060  1.00 99.99     0.164 HD
ATOM     54  O   PRO     5      62.423  38.709  49.126  1.00  0.00    -0.271 OA
BRANCH  52  55
ATOM     55  CA  ARG     6      60.304  37.752  47.278  1.00  0.00     0.159 C 
BRANCH  55  56
ATOM     56  CB  ARG     6      60.570  36.521  46.400  1.00  0.00     0.034 C 
BRANCH  56  57
ATOM     57  CG  ARG     6      61.891  35.820  46.736  1.00  0.00     0.027 C 
BRANCH  57  58
ATOM     58  CD  ARG     6      62.344  34.893  45.601  1.00  0.00     0.116 C 
BRANCH  58  59
ATOM     59  NE  ARG     6      63.278  35.585  44.698  1.00  0.00    -0.212 N 
ATOM     60  CZ  ARG     6      64.617  35.605  44.796  1.00  0.00     0.666 C 
ATOM     61  NH2 ARG     6      65.339  36.169  43.841  1.00  0.00    -0.235 N 
ATOM     62  NH1 ARG     6      65.259  35.007  45.789  1.00  0.00    -0.235 N 
ATOM     63 2HH2 ARG     6      64.905  36.575  43.040  1.00 99.99     0.174 HD
ATOM     64 1HH2 ARG     6      66.336  36.179  43.924  1.00 99.99     0.174 HD
ATOM     65 1HH1 ARG     6      66.256  35.041  45.838  1.00 99.99     0.174 HD
ATOM     66 2HH1 ARG     6      64.735  34.519  46.485  1.00 99.99     0.174 HD
ATOM     67  HE  ARG     6      62.853  36.077  43.946  1.00 99.99     0.178 HD
ENDBRANCH  58  59
ENDBRANCH  57  58
ENDBRANCH  56  57
ENDBRANCH  55  56
BRANCH  55  68
ATOM     68  C   ARG     6      58.840  38.193  47.071  1.00  0.00     0.251 C 
ATOM     69  N   CYS     7      58.323  38.058  45.839  1.00  0.00    -0.337 N 
ATOM     70  H   CYS     7      58.827  37.607  45.100  1.00 99.99     0.164 HD
ATOM     71  O   ARG     6      58.219  38.727  47.987  1.00  0.00    -0.271 OA
BRANCH  69  72
ATOM     72  CA  CYS     7      56.971  38.494  45.443  1.00  0.00     0.170 C 
BRANCH  72  73
ATOM     73  CB  CYS     7      55.951  38.055  46.512  1.00  0.00     0.085 C 
BRANCH  73  74
ATOM     74  SG  CYS     7      54.622  36.900  46.010  1.00  0.00    -0.165 SA
ATOM     75  HG  CYS     7      54.524  37.314  44.752  1.00 99.99     0.102 HD
ENDBRANCH  73  74
ENDBRANCH  72  73
BRANCH  72  76
ATOM     76  C   CYS     7      56.915  40.036  45.315  1.00  0.00     0.252 C 
ATOM     77  O   CYS     7      55.911  40.605  44.880  1.00  0.00    -0.271 OA
ATOM     78  N   TRP     8      57.986  40.717  45.718  1.00  0.00    -0.337 N 
ATOM     79  H   TRP     8      58.761  40.290  46.182  1.00 99.99     0.164 HD
BRANCH  78  80
ATOM     80  CA  TRP     8      58.050  42.193  45.597  1.00  0.00     0.164 C 
BRANCH  80  81
ATOM     81  CB  TRP     8      58.561  42.848  46.885  1.00  0.00     0.059 C 
BRANCH  81  82
ATOM     82  CG  TRP     8      57.440  43.345  47.806  1.00  0.00    -0.016 A 
ATOM     83  CD1 TRP     8      56.617  44.368  47.613  1.00  0.00     0.097 A 
ATOM     84  NE1 TRP     8      55.755  44.449  48.630  1.00  0.00    -0.365 N 
ATOM     85  HE1 TRP     8      55.103  45.192  48.764  1.00 99.99     0.165 HD
ATOM     86  CE2 TRP     8      56.014  43.472  49.501  1.00  0.00     0.042 A 
ATOM     87  CZ2 TRP     8      55.443  43.109  50.712  1.00  0.00     0.030 A 
ATOM     88  CD2 TRP     8      57.097  42.762  49.014  1.00  0.00    -0.001 A 
ATOM     89  CH2 TRP     8      55.977  42.047  51.440  1.00  0.00     0.002 A 
ATOM     90  CZ3 TRP     8      57.080  41.357  50.959  1.00  0.00     0.001 A 
ATOM     91  CE3 TRP     8      57.641  41.714  49.739  1.00  0.00     0.014 A 
ENDBRANCH  81  82
ENDBRANCH  80  81
BRANCH  80  92
ATOM     92  C   TRP     8      58.835  42.666  44.370  1.00  0.00     0.251 C 
ATOM     93  O   TRP     8      58.920  43.848  44.038  1.00  0.00    -0.271 OA
ATOM     94  N   ILE     9      59.328  41.664  43.645  1.00  0.00    -0.338 N 
ATOM     95  H   ILE     9      59.120  40.713  43.874  1.00 99.99     0.164 HD
BRANCH  94  96
ATOM     96  CA  ILE     9      60.217  41.848  42.482  1.00  0.00     0.159 C 
BRANCH  96  97
ATOM     97  CB  ILE     9      61.478  40.965  42.648  1.00  0.00     0.029 C 
ATOM     98  CG2 ILE     9      62.330  40.991  41.367  1.00  0.00     0.002 C 
BRANCH  97  99
ATOM     99  CG1 ILE     9      62.316  41.435  43.854  1.00  0.00     0.002 C 
ATOM    100  CD  ILE     9      62.938  42.830  43.700  1.00  0.00     0.000 C 
ENDBRANCH  97  99
ENDBRANCH  96  97
BRANCH  96 101
ATOM    101  C   ILE     9      59.467  41.605  41.155  1.00  0.00     0.251 C 
ATOM    102  N   LYS    10      59.556  42.611  40.281  1.00  0.00    -0.338 N 
ATOM    103  H   LYS    10      59.947  43.484  40.577  1.00 99.99     0.164 HD
ATOM    104  O   ILE     9      58.698  40.652  41.031  1.00  0.00    -0.271 OA
BRANCH 102 105
ATOM    105  CA  LYS    10      59.093  42.607  38.873  1.00  0.00     0.159 C 
BRANCH 105 106
ATOM    106  C   LYS    10      59.070  41.224  38.167  1.00  0.00     0.251 C 
ATOM    107  O   LYS    10      60.094  40.660  37.786  1.00  0.00    -0.271 OA
ATOM    108  N   ILE    11      57.863  40.722  37.897  1.00  0.00    -0.338 N 
ATOM    109  H   ILE    11      57.027  41.210  38.135  1.00 99.99     0.164 HD
BRANCH 108 110
ATOM    110  CA  ILE    11      57.670  39.411  37.235  1.00  0.00     0.159 C 
BRANCH 110 111
ATOM    111  C   ILE    11      58.608  38.304  37.757  1.00  0.00     0.251 C 
ATOM    112  N   LYS    12      58.530  38.044  39.065  1.00  0.00    -0.338 N 
ATOM    113  H   LYS    12      58.027  38.645  39.684  1.00 99.99     0.164 HD
ATOM    114  O   ILE    11      59.355  37.698  36.992  1.00  0.00    -0.271 OA
BRANCH 112 115
ATOM    115  CA  LYS    12      59.258  36.931  39.716  1.00  0.00     0.159 C 
BRANCH 115 116
ATOM    116  C   LYS    12      60.735  36.856  39.276  1.00  0.00     0.251 C 
ATOM    117  O   LYS    12      61.254  35.814  38.880  1.00  0.00    -0.271 OA
ATOM    118  N   PHE    13      61.416  38.001  39.361  1.00  0.00    -0.337 N 
ATOM    119  H   PHE    13      61.050  38.795  39.842  1.00 99.99     0.164 HD
BRANCH 118 120
ATOM    120  CA  PHE    13      62.816  38.125  38.902  1.00  0.00     0.164 C 
BRANCH 120 121
ATOM    121  CB  PHE    13      63.713  37.069  39.571  1.00  0.00     0.056 C 
BRANCH 121 122
ATOM    122  CG  PHE    13      65.189  37.463  39.674  1.00  0.00    -0.044 A 
ATOM    123  CD1 PHE    13      65.551  38.806  39.660  1.00  0.00     0.008 A 
ATOM    124  CE1 PHE    13      66.886  39.168  39.729  1.00  0.00     0.001 A 
ATOM    125  CZ  PHE    13      67.873  38.186  39.810  1.00  0.00     0.000 A 
ATOM    126  CE2 PHE    13      67.507  36.844  39.839  1.00  0.00     0.001 A 
ATOM    127  CD2 PHE    13      66.172  36.483  39.766  1.00  0.00     0.008 A 
ENDBRANCH 121 122
ENDBRANCH 120 121
BRANCH 120 128
ATOM    128  C   PHE    13      62.974  38.097  37.372  1.00  0.00     0.251 C 
ATOM    129  N   ARG    14      62.368  39.098  36.733  1.00  0.00    -0.338 N 
ATOM    130  H   ARG    14      61.658  39.630  37.186  1.00 99.99     0.164 HD
ATOM    131  O   PHE    13      63.560  37.180  36.806  1.00  0.00    -0.271 OA
BRANCH 129 132
ATOM    132  CA  ARG    14      62.523  39.318  35.280  1.00  0.00     0.159 C 
BRANCH 132 133
ATOM    133  CB  ARG    14      61.160  39.436  34.578  1.00  0.00     0.034 C 
BRANCH 133 134
ATOM    134  CG  ARG    14      60.867  38.256  33.640  1.00  0.00     0.027 C 
BRANCH 134 135
ATOM    135  CD  ARG    14      61.999  37.221  33.648  1.00  0.00     0.116 C 
BRANCH 135 136
ATOM    136  NE  ARG    14      61.453  35.856  33.617  1.00  0.00    -0.212 N 
ATOM    137  CZ  ARG    14      61.087  35.118  34.676  1.00  0.00     0.666 C 
ATOM    138  NH1 ARG    14      61.117  35.591  35.913  1.00  0.00    -0.235 N 
ATOM    139  NH2 ARG    14      60.735  33.853  34.508  1.00  0.00    -0.235 N 
ATOM    140 2HH1 ARG    14      61.390  36.544  36.072  1.00 99.99     0.174 HD
ATOM    141 1HH1 ARG    14      60.841  35.022  36.684  1.00 99.99     0.174 HD
ATOM    142 2HH2 ARG    14      60.737  33.440  33.602  1.00 99.99     0.174 HD
ATOM    143 1HH2 ARG    14      60.471  33.313  35.306  1.00 99.99     0.174 HD
ATOM    144  HE  ARG    14      61.356  35.460  32.708  1.00 99.99     0.178 HD
ENDBRANCH 135 136
ENDBRANCH 134 135
ENDBRANCH 133 134
ENDBRANCH 132 133
BRANCH 132 145
ATOM    145  C   ARG    14      63.453  40.472  34.865  1.00  0.00     0.251 C 
ATOM    146  N   CYS    15      63.807  41.342  35.811  1.00  0.00    -0.337 N 
ATOM    147  H   CYS    15      63.581  41.205  36.771  1.00 99.99     0.164 HD
ATOM    148  O   ARG    14      63.869  40.544  33.712  1.00  0.00    -0.271 OA
BRANCH 146 149
ATOM    149  CA  CYS    15      64.652  42.527  35.547  1.00  0.00     0.170 C 
BRANCH 149 150
ATOM    150  C   CYS    15      66.164  42.270  35.670  1.00  0.00     0.252 C 
ATOM    151  N   LYS    16      66.482  41.319  36.550  1.00  0.00    -0.337 N 
ATOM    152  H   LYS    16      65.790  40.884  37.119  1.00 99.99     0.164 HD
ATOM    153  O   CYS    15      66.957  42.728  34.852  1.00  0.00    -0.271 OA
BRANCH 151 154
ATOM    154  CA  LYS    16      67.869  40.880  36.814  1.00  0.00     0.159 C 
BRANCH 154 155
ATOM    155  C   LYS    16      68.619  41.790  37.805  1.00  0.00     0.251 C 
ATOM    156  N   SER    17      69.731  41.266  38.323  1.00  0.00    -0.336 N 
ATOM    157  H   SER    17      70.032  40.344  38.072  1.00 99.99     0.164 HD
ATOM    158  O   LYS    16      68.186  42.894  38.144  1.00  0.00    -0.271 OA
BRANCH 156 159
ATOM    159  CA  SER    17      70.631  41.994  39.238  1.00  0.00     0.189 C 
BRANCH 159 160
ATOM    160  C   SER    17      69.901  42.439  40.515  1.00  0.00     0.253 C 
ATOM    161  O   SER    17      69.822  43.635  40.773  1.00  0.00    -0.270 OA
ATOM    162  N   LEU    18      69.545  41.482  41.377  1.00  0.00    -0.337 N 
ATOM    163  H   LEU    18      69.763  40.526  41.169  1.00 99.99     0.164 HD
BRANCH 162 164
ATOM    164  CA  LEU    18      68.814  41.709  42.634  1.00  0.00     0.159 C 
BRANCH 164 165
ATOM    165  C   LEU    18      69.717  41.863  43.864  1.00  0.00     0.251 C 
ATOM    166  O   LEU    18      70.857  42.308  43.783  1.00  0.00    -0.271 OA
ATOM    167  N   LYS    19      69.089  41.564  44.999  1.00  0.00    -0.338 N 
ATOM    168  H   LYS    19      68.124  41.313  45.005  1.00 99.99     0.164 HD
BRANCH 167 169
ATOM    169  CA  LYS    19      69.722  41.519  46.326  1.00  0.00     0.159 C 
BRANCH 169 170
ATOM    170  C   LYS    19      69.222  40.280  47.070  1.00  0.00     0.251 C 
ATOM    171  N   PHE    20      68.320  39.567  46.409  1.00  0.00    -0.336 N 
ATOM    172  H   PHE    20      67.956  39.870  45.529  1.00 99.99     0.164 HD
ATOM    173  O   LYS    19      69.609  40.023  48.211  1.00  0.00    -0.271 OA
BRANCH 171 174
ATOM    174  CA  PHE    20      67.810  38.270  46.892  1.00  0.00     0.172 C 
BRANCH 174 175
ATOM    175  CB  PHE    20      66.297  38.344  47.132  1.00  0.00     0.058 C 
BRANCH 175 176
ATOM    176  CG  PHE    20      65.909  38.170  48.608  1.00  0.00    -0.044 A 
ATOM    177  CD2 PHE    20      65.353  36.978  49.054  1.00  0.00     0.008 A 
ATOM    178  CE2 PHE    20      64.964  36.839  50.381  1.00  0.00     0.001 A 
ATOM    179  CZ  PHE    20      65.128  37.897  51.271  1.00  0.00     0.000 A 
ATOM    180  CE1 PHE    20      65.704  39.086  50.829  1.00  0.00     0.001 A 
ATOM    181  CD1 PHE    20      66.091  39.219  49.500  1.00  0.00     0.008 A 
ENDBRANCH 175 176
ENDBRANCH 174 175
BRANCH 174 182
ATOM    182  C   PHE    20      68.140  37.185  45.856  1.00  0.00     0.207 C 
ATOM    183  OXT PHE    20      68.151  36.004  46.259  1.00 99.99    -0.646 OA
ATOM    184  O   PHE    20      68.034  37.497  44.661  1.00 99.99    -0.646 OA
ENDBRANCH 174 182
ENDBRANCH 171 174
ENDBRANCH 169 170
BRANCH 169 185
ATOM    185  CB  LYS    19      69.350  42.761  47.147  1.00  0.00     0.032 C 
BRANCH 185 186
ATOM    186  CG  LYS    19      67.841  42.930  47.347  1.00  0.00     0.004 C 
BRANCH 186 187
ATOM    187  CD  LYS    19      67.343  44.298  46.865  1.00  0.00     0.032 C 
BRANCH 187 188
ATOM    188  CE  LYS    19      65.826  44.299  46.665  1.00  0.00     0.206 C 
BRANCH 188 189
ATOM    189  NZ  LYS    19      65.422  43.195  45.781  1.00  0.00    -0.064 N 
ATOM    190  HZ3 LYS    19      66.063  42.430  45.873  1.00 99.99     0.275 HD
ATOM    191  HZ1 LYS    19      64.501  42.882  46.006  1.00 99.99     0.275 HD
ATOM    192  HZ2 LYS    19      65.455  43.500  44.827  1.00 99.99     0.275 HD
ENDBRANCH 188 189
ENDBRANCH 187 188
ENDBRANCH 186 187
ENDBRANCH 185 186
ENDBRANCH 169 185
ENDBRANCH 167 169
ENDBRANCH 164 165
BRANCH 164 193
ATOM    193  CB  LEU    18      67.820  40.564  42.877  1.00  0.00     0.032 C 
BRANCH 193 194
ATOM    194  CG  LEU    18      66.374  41.039  43.058  1.00  0.00     0.002 C 
ATOM    195  CD1 LEU    18      65.950  41.857  41.837  1.00  0.00     0.000 C 
ATOM    196  CD2 LEU    18      65.413  39.857  43.236  1.00  0.00     0.000 C 
ENDBRANCH 193 194
ENDBRANCH 164 193
ENDBRANCH 162 164
ENDBRANCH 159 160
BRANCH 159 197
ATOM    197  CB  SER    17      71.357  43.148  38.522  1.00  0.00     0.169 C 
BRANCH 197 198
ATOM    198  OG  SER    17      70.514  44.292  38.341  1.00  0.00    -0.380 OA
ATOM    199  HG  SER    17      70.261  44.307  37.371  1.00 99.99     0.211 HD
ENDBRANCH 197 198
ENDBRANCH 159 197
ENDBRANCH 156 159
ENDBRANCH 154 155
BRANCH 154 200
ATOM    200  CB  LYS    16      68.634  40.748  35.487  1.00  0.00     0.032 C 
BRANCH 200 201
ATOM    201  CG  LYS    16      68.461  39.386  34.810  1.00  0.00     0.004 C 
BRANCH 201 202
ATOM    202  CD  LYS    16      69.839  38.761  34.579  1.00  0.00     0.032 C 
BRANCH 202 203
ATOM    203  CE  LYS    16      70.060  37.521  35.445  1.00  0.00     0.206 C 
BRANCH 203 204
ATOM    204  NZ  LYS    16      70.049  37.878  36.871  1.00  0.00    -0.064 N 
ATOM    205  HZ1 LYS    16      69.798  38.841  36.973  1.00 99.99     0.275 HD
ATOM    206  HZ2 LYS    16      69.382  37.308  37.353  1.00 99.99     0.275 HD
ATOM    207  HZ3 LYS    16      70.957  37.728  37.260  1.00 99.99     0.275 HD
ENDBRANCH 203 204
ENDBRANCH 202 203
ENDBRANCH 201 202
ENDBRANCH 200 201
ENDBRANCH 154 200
ENDBRANCH 151 154
ENDBRANCH 149 150
BRANCH 149 208
ATOM    208  CB  CYS    15      64.219  43.678  36.463  1.00  0.00     0.085 C 
BRANCH 208 209
ATOM    209  SG  CYS    15      64.645  45.346  35.838  1.00  0.00    -0.165 SA
ATOM    210  HG  CYS    15      63.390  45.756  35.686  1.00 99.99     0.102 HD
ENDBRANCH 208 209
ENDBRANCH 149 208
ENDBRANCH 146 149
ENDBRANCH 132 145
ENDBRANCH 129 132
ENDBRANCH 120 128
ENDBRANCH 118 120
ENDBRANCH 115 116
BRANCH 115 211
ATOM    211  CB  LYS    12      58.554  35.586  39.459  1.00  0.00     0.032 C 
BRANCH 211 212
ATOM    212  CG  LYS    12      57.806  35.024  40.671  1.00  0.00     0.004 C 
BRANCH 212 213
ATOM    213  CD  LYS    12      58.727  35.037  41.894  1.00  0.00     0.032 C 
BRANCH 213 214
ATOM    214  CE  LYS    12      59.702  33.857  41.884  1.00  0.00     0.206 C 
BRANCH 214 215
ATOM    215  NZ  LYS    12      61.088  34.320  41.719  1.00  0.00    -0.064 N 
ATOM    216  HZ3 LYS    12      61.295  35.009  42.413  1.00 99.99     0.275 HD
ATOM    217  HZ2 LYS    12      61.202  34.719  40.809  1.00 99.99     0.275 HD
ATOM    218  HZ1 LYS    12      61.712  33.546  41.823  1.00 99.99     0.275 HD
ENDBRANCH 214 215
ENDBRANCH 213 214
ENDBRANCH 212 213
ENDBRANCH 211 212
ENDBRANCH 115 211
ENDBRANCH 112 115
ENDBRANCH 110 111
BRANCH 110 219
ATOM    219  CB  ILE    11      57.749  39.522  35.696  1.00  0.00     0.029 C 
ATOM    220  CG2 ILE    11      57.001  38.339  35.062  1.00  0.00     0.002 C 
BRANCH 219 221
ATOM    221  CG1 ILE    11      57.262  40.882  35.163  1.00  0.00     0.002 C 
ATOM    222  CD  ILE    11      58.211  41.505  34.130  1.00  0.00     0.000 C 
ENDBRANCH 219 221
ENDBRANCH 110 219
ENDBRANCH 108 110
ENDBRANCH 105 106
BRANCH 105 223
ATOM    223  CB  LYS    10      59.901  43.671  38.104  1.00  0.00     0.032 C 
BRANCH 223 224
ATOM    224  CG  LYS    10      59.399  43.892  36.672  1.00  0.00     0.004 C 
BRANCH 224 225
ATOM    225  CD  LYS    10      60.562  44.013  35.688  1.00  0.00     0.032 C 
BRANCH 225 226
ATOM    226  CE  LYS    10      60.249  45.060  34.617  1.00  0.00     0.206 C 
BRANCH 226 227
ATOM    227  NZ  LYS    10      58.801  45.171  34.392  1.00  0.00    -0.064 N 
ATOM    228  HZ2 LYS    10      58.319  44.597  35.054  1.00 99.99     0.275 HD
ATOM    229  HZ3 LYS    10      58.517  46.123  34.506  1.00 99.99     0.275 HD
ATOM    230  HZ1 LYS    10      58.585  44.867  33.465  1.00 99.99     0.275 HD
ENDBRANCH 226 227
ENDBRANCH 225 226
ENDBRANCH 224 225
ENDBRANCH 223 224
ENDBRANCH 105 223
ENDBRANCH 102 105
ENDBRANCH  96 101
ENDBRANCH  94  96
ENDBRANCH  80  92
ENDBRANCH  78  80
ENDBRANCH  72  76
ENDBRANCH  69  72
ENDBRANCH  55  68
ENDBRANCH  52  55
ENDBRANCH  47  51
ENDBRANCH  31  44
ENDBRANCH  29  31
ENDBRANCH  26  27
BRANCH  26 231
ATOM    231  CB  LEU     3      62.542  41.006  57.652  1.00  0.00     0.032 C 
BRANCH 231 232
ATOM    232  CG  LEU     3      62.234  40.485  59.063  1.00  0.00     0.002 C 
ATOM    233  CD2 LEU     3      63.359  40.823  60.047  1.00  0.00     0.000 C 
ATOM    234  CD1 LEU     3      62.031  38.970  59.024  1.00  0.00     0.000 C 
ENDBRANCH 231 232
ENDBRANCH  26 231
ENDBRANCH  24  26
ENDBRANCH  18  22
ENDBRANCH  15  18
ENDBRANCH   5  14
ENDBRANCH   1   5
TORSDOF 98
ENDMDL
MODEL 4
REMARK VINA RESULT:      -2.5      2.795      7.894
REMARK WARNING: 32 MAX_TORS EXCEEDED!!!
REMARK  98 active torsions:
REMARK  status: ('A' for Active; 'I' for Inactive)
REMARK    1  A    between atoms: N_1  and  CA_2 
REMARK    2  A    between atoms: CA_2  and  CB_5 
REMARK    3  A    between atoms: CA_2  and  C_3 
REMARK       I    between atoms: C_3  and  N_16 
REMARK    4  A    between atoms: CB_5  and  CG_6 
REMARK    5  A    between atoms: CG_6  and  CD_7 
REMARK    6  A    between atoms: CD_7  and  CE_8 
REMARK    7  A    between atoms: CE_8  and  NZ_9 
REMARK    8  A    between atoms: N_16  and  CA_17 
REMARK    9  A    between atoms: CA_17  and  CB_20 
REMARK   10  A    between atoms: CA_17  and  C_18 
REMARK       I    between atoms: C_18  and  N_24 
REMARK   11  A    between atoms: CB_20  and  OG_21 
REMARK   12  A    between atoms: N_24  and  CA_25 
REMARK   13  A    between atoms: CA_25  and  C_26 
REMARK   14  A    between atoms: CA_25  and  CB_28 
REMARK       I    between atoms: C_26  and  N_33 
REMARK   15  A    between atoms: CB_28  and  CG_29 
REMARK   16  A    between atoms: N_33  and  CA_34 
REMARK   17  A    between atoms: CA_34  and  CB_37 
REMARK   18  A    between atoms: CA_34  and  C_35 
REMARK       I    between atoms: C_35  and  N_50 
REMARK   19  A    between atoms: CB_37  and  CG_38 
REMARK   20  A    between atoms: CG_38  and  CD_39 
REMARK   21  A    between atoms: CD_39  and  NE_40 
REMARK       I    between atoms: NE_40  and  CZ_41 
REMARK       I    between atoms: CZ_41  and  NH1_42 
REMARK       I    between atoms: CZ_41  and  NH2_43 
REMARK   22  A    between atoms: CA_51  and  C_52 
REMARK       I    between atoms: C_52  and  N_57 
REMARK   23  A    between atoms: N_57  and  CA_58 
REMARK   24  A    between atoms: CA_58  and  CB_61 
REMARK   25  A    between atoms: CA_58  and  C_59 
REMARK       I    between atoms: C_59  and  N_74 
REMARK   26  A    between atoms: CB_61  and  CG_62 
REMARK   27  A    between atoms: CG_62  and  CD_63 
REMARK   28  A    between atoms: CD_63  and  NE_64 
REMARK       I    between atoms: NE_64  and  CZ_65 
REMARK       I    between atoms: CZ_65  and  NH2_67 
REMARK       I    between atoms: CZ_65  and  NH1_66 
REMARK   29  A    between atoms: N_74  and  CA_75 
REMARK   30  A    between atoms: CA_75  and  CB_78 
REMARK   31  A    between atoms: CA_75  and  C_76 
REMARK       I    between atoms: C_76  and  N_82 
REMARK   32  A    between atoms: CB_78  and  SG_79 
REMARK   33  A    between atoms: N_82  and  CA_83 
REMARK   34  A    between atoms: CA_83  and  CB_86 
REMARK   35  A    between atoms: CA_83  and  C_84 
REMARK       I    between atoms: C_84  and  N_98 
REMARK   36  A    between atoms: CB_86  and  CG_87 
REMARK   37  A    between atoms: N_98  and  CA_99 
REMARK   38  A    between atoms: CA_99  and  CB_102 
REMARK   39  A    between atoms: CA_99  and  C_100 
REMARK       I    between atoms: C_100  and  N_107 
REMARK   40  A    between atoms: CB_102  and  CG1_103 
REMARK   41  A    between atoms: N_107  and  CA_108 
REMARK   42  A    between atoms: CA_108  and  C_109 
REMARK   43  A    between atoms: CA_108  and  CB_111 
REMARK       I    between atoms: C_109  and  N_120 
REMARK   44  A    between atoms: CB_111  and  CG_112 
REMARK   45  A    between atoms: CG_112  and  CD_113 
REMARK   46  A    between atoms: CD_113  and  CE_114 
REMARK   47  A    between atoms: CE_114  and  NZ_115 
REMARK   48  A    between atoms: N_120  and  CA_121 
REMARK   49  A    between atoms: CA_121  and  C_122 
REMARK   50  A    between atoms: CA_121  and  CB_124 
REMARK       I    between atoms: C_122  and  N_129 
REMARK   51  A    between atoms: CB_124  and  CG1_125 
REMARK   52  A    between atoms: N_129  and  CA_130 
REMARK   53  A    between atoms: CA_130  and  C_131 
REMARK   54  A    between atoms: CA_130  and  CB_133 
REMARK       I    between atoms: C_131  and  N_142 
REMARK   55  A    between atoms: CB_133  and  CG_134 
REMARK   56  A    between atoms: CG_134  and  CD_135 
REMARK   57  A    between atoms: CD_135  and  CE_136 
REMARK   58  A    between atoms: CE_136  and  NZ_137 
REMARK   59  A    between atoms: N_142  and  CA_143 
REMARK   60  A    between atoms: CA_143  and  CB_146 
REMARK   61  A    between atoms: CA_143  and  C_144 
REMARK       I    between atoms: C_144  and  N_154 
REMARK   62  A    between atoms: CB_146  and  CG_147 
REMARK   63  A    between atoms: N_154  and  CA_155 
REMARK   64  A    between atoms: CA_155  and  CB_158 
REMARK   65  A    between atoms: CA_155  and  C_156 
REMARK       I    between atoms: C_156  and  N_171 
REMARK   66  A    between atoms: CB_158  and  CG_159 
REMARK   67  A    between atoms: CG_159  and  CD_160 
REMARK   68  A    between atoms: CD_160  and  NE_161 
REMARK       I    between atoms: NE_161  and  CZ_162 
REMARK       I    between atoms: CZ_162  and  NH1_163 
REMARK   69  A    between atoms: N_171  and  CA_172 
REMARK   70  A    between atoms: CA_172  and  C_173 
REMARK   71  A    between atoms: CA_172  and  CB_175 
REMARK       I    between atoms: C_173  and  N_179 
REMARK   72  A    between atoms: CB_175  and  SG_176 
REMARK   73  A    between atoms: N_179  and  CA_180 
REMARK   74  A    between atoms: CA_180  and  C_181 
REMARK   75  A    between atoms: CA_180  and  CB_183 
REMARK       I    between atoms: C_181  and  N_192 
REMARK   76  A    between atoms: CB_183  and  CG_184 
REMARK   77  A    between atoms: CG_184  and  CD_185 
REMARK   78  A    between atoms: CD_185  and  CE_186 
REMARK   79  A    between atoms: CE_186  and  NZ_187 
REMARK   80  A    between atoms: N_192  and  CA_193 
REMARK   81  A    between atoms: CA_193  and  C_194 
REMARK   82  A    between atoms: CA_193  and  CB_196 
REMARK       I    between atoms: C_194  and  N_200 
REMARK   83  A    between atoms: CB_196  and  OG_197 
REMARK   84  A    between atoms: N_200  and  CA_201 
REMARK   85  A    between atoms: CA_201  and  C_202 
REMARK   86  A    between atoms: CA_201  and  CB_204 
REMARK       I    between atoms: C_202  and  N_209 
REMARK   87  A    between atoms: CB_204  and  CG_205 
REMARK   88  A    between atoms: N_209  and  CA_210 
REMARK   89  A    between atoms: CA_210  and  C_211 
REMARK   90  A    between atoms: CA_210  and  CB_213 
REMARK       I    between atoms: C_211  and  N_222 
REMARK   91  A    between atoms: CB_213  and  CG_214 
REMARK   92  A    between atoms: CG_214  and  CD_215 
REMARK   93  A    between atoms: CD_215  and  CE_216 
REMARK   94  A    between atoms: CE_216  and  NZ_217 
REMARK   95  A    between atoms: N_222  and  CA_223 
REMARK   96  A    between atoms: CA_223  and  CB_226 
REMARK   97  A    between atoms: CA_223  and  C_224 
REMARK   98  A    between atoms: CB_226  and  CG_227 
ROOT
ATOM      1  N   LYS     1      57.266  41.342  57.706  1.00  0.00    -0.058 N 
ATOM      2  H1  LYS     1      56.735  41.330  58.555  1.00 99.99     0.276 HD
ATOM      3  H2  LYS     1      57.967  42.023  57.792  1.00 99.99     0.276 HD
ATOM      4  H3  LYS     1      56.688  41.640  56.966  1.00 99.99     0.276 HD
ENDROOT
BRANCH   1   5
ATOM      5  CA  LYS     1      57.819  39.977  57.515  1.00  0.00     0.255 C 
BRANCH   5   6
ATOM      6  CB  LYS     1      57.006  38.931  58.304  1.00  0.00     0.040 C 
BRANCH   6   7
ATOM      7  CG  LYS     1      57.841  38.069  59.270  1.00  0.00     0.004 C 
BRANCH   7   8
ATOM      8  CD  LYS     1      58.877  37.213  58.530  1.00  0.00     0.032 C 
BRANCH   8   9
ATOM      9  CE  LYS     1      58.401  35.766  58.347  1.00  0.00     0.206 C 
BRANCH   9  10
ATOM     10  NZ  LYS     1      57.295  35.427  59.260  1.00  0.00    -0.064 N 
ATOM     11  HZ1 LYS     1      57.608  35.495  60.208  1.00 99.99     0.275 HD
ATOM     12  HZ2 LYS     1      56.535  36.061  59.120  1.00 99.99     0.275 HD
ATOM     13  HZ3 LYS     1      56.985  34.492  59.084  1.00 99.99     0.275 HD
ENDBRANCH   9  10
ENDBRANCH   8   9
ENDBRANCH   7   8
ENDBRANCH   6   7
ENDBRANCH   5   6
BRANCH   5  14
ATOM     14  C   LYS     1      57.745  39.668  56.010  1.00  0.00     0.259 C 
ATOM     15  N   SER     2      58.241  40.600  55.208  1.00  0.00    -0.336 N 
ATOM     16  H   SER     2      58.668  41.439  55.541  1.00 99.99     0.164 HD
ATOM     17  O   LYS     1      57.113  38.693  55.600  1.00  0.00    -0.271 OA
BRANCH  15  18
ATOM     18  CA  SER     2      58.213  40.481  53.738  1.00  0.00     0.189 C 
BRANCH  18  19
ATOM     19  CB  SER     2      57.328  41.596  53.149  1.00  0.00     0.169 C 
BRANCH  19  20
ATOM     20  OG  SER     2      58.089  42.537  52.364  1.00  0.00    -0.380 OA
ATOM     21  HG  SER     2      57.523  43.122  51.780  1.00 99.99     0.211 HD
ENDBRANCH  19  20
ENDBRANCH  18  19
BRANCH  18  22
ATOM     22  C   SER     2      59.669  40.615  53.256  1.00  0.00     0.253 C 
ATOM     23  O   SER     2      60.034  40.056  52.223  1.00  0.00    -0.270 OA
ATOM     24  N   LEU     3      60.432  41.532  53.851  1.00  0.00    -0.337 N 
ATOM     25  H   LEU     3      60.062  42.301  54.361  1.00 99.99     0.164 HD
BRANCH  24  26
ATOM     26  CA  LEU     3      61.884  41.556  53.579  1.00  0.00     0.159 C 
BRANCH  26  27
ATOM     27  C   LEU     3      62.185  42.089  52.162  1.00  0.00     0.251 C 
ATOM     28  O   LEU     3      63.094  41.617  51.476  1.00  0.00    -0.271 OA
ATOM     29  N   ARG     4      61.347  43.011  51.699  1.00  0.00    -0.338 N 
ATOM     30  H   ARG     4      60.541  43.284  52.220  1.00 99.99     0.164 HD
BRANCH  29  31
ATOM     31  CA  ARG     4      61.546  43.718  50.422  1.00  0.00     0.160 C 
BRANCH  31  32
ATOM     32  CB  ARG     4      63.040  43.988  50.200  1.00  0.00     0.034 C 
BRANCH  32  33
ATOM     33  CG  ARG     4      63.469  45.350  50.757  1.00  0.00     0.027 C 
BRANCH  33  34
ATOM     34  CD  ARG     4      64.766  45.857  50.120  1.00  0.00     0.116 C 
BRANCH  34  35
ATOM     35  NE  ARG     4      65.651  44.739  49.748  1.00  0.00    -0.212 N 
ATOM     36  CZ  ARG     4      66.281  44.574  48.582  1.00  0.00     0.666 C 
ATOM     37  NH1 ARG     4      66.184  45.466  47.597  1.00  0.00    -0.235 N 
ATOM     38  NH2 ARG     4      66.980  43.476  48.351  1.00  0.00    -0.235 N 
ATOM     39 2HH1 ARG     4      65.632  46.284  47.738  1.00 99.99     0.174 HD
ATOM     40 1HH1 ARG     4      66.668  45.320  46.738  1.00 99.99     0.174 HD
ATOM     41 1HH2 ARG     4      67.446  43.359  47.476  1.00 99.99     0.174 HD
ATOM     42 2HH2 ARG     4      67.039  42.756  49.042  1.00 99.99     0.174 HD
ATOM     43  HE  ARG     4      65.805  44.063  50.467  1.00 99.99     0.178 HD
ENDBRANCH  34  35
ENDBRANCH  33  34
ENDBRANCH  32  33
ENDBRANCH  31  32
BRANCH  31  44
ATOM     44  C   ARG     4      60.998  42.837  49.283  1.00  0.00     0.254 C 
ATOM     45  N   PRO     5      61.615  42.837  48.087  1.00  0.00    -0.312 N 
ATOM     46  CD  PRO     5      62.834  43.607  47.760  1.00  0.00     0.105 C 
ATOM     47  CA  PRO     5      61.149  42.090  46.888  1.00  0.00     0.163 C 
ATOM     48  CG  PRO     5      63.284  43.069  46.401  1.00  0.00     0.027 C 
ATOM     49  CB  PRO     5      61.964  42.688  45.734  1.00  0.00     0.034 C 
ATOM     50  O   ARG     4      60.051  42.101  49.569  1.00  0.00    -0.270 OA
BRANCH  47  51
ATOM     51  C   PRO     5      61.194  40.546  46.942  1.00  0.00     0.251 C 
ATOM     52  N   ARG     6      61.721  40.071  48.067  1.00  0.00    -0.338 N 
ATOM     53  H   ARG     6      62.183  40.722  48.669  1.00 99.99     0.164 HD
ATOM     54  O   PRO     5      60.958  39.844  45.963  1.00  0.00    -0.271 OA
BRANCH  52  55
ATOM     55  CA  ARG     6      61.728  38.692  48.590  1.00  0.00     0.159 C 
BRANCH  55  56
ATOM     56  CB  ARG     6      62.302  38.650  50.013  1.00  0.00     0.034 C 
BRANCH  56  57
ATOM     57  CG  ARG     6      62.415  37.229  50.573  1.00  0.00     0.027 C 
BRANCH  57  58
ATOM     58  CD  ARG     6      63.202  37.198  51.888  1.00  0.00     0.116 C 
BRANCH  58  59
ATOM     59  NE  ARG     6      62.382  36.649  52.980  1.00  0.00    -0.212 N 
ATOM     60  CZ  ARG     6      62.311  35.362  53.358  1.00  0.00     0.666 C 
ATOM     61  NH2 ARG     6      61.622  35.029  54.437  1.00  0.00    -0.235 N 
ATOM     62  NH1 ARG     6      62.977  34.407  52.726  1.00  0.00    -0.235 N 
ATOM     63 2HH2 ARG     6      61.158  35.721  54.985  1.00 99.99     0.174 HD
ATOM     64 1HH2 ARG     6      61.576  34.068  54.709  1.00 99.99     0.174 HD
ATOM     65 1HH1 ARG     6      62.904  33.457  53.028  1.00 99.99     0.174 HD
ATOM     66 2HH1 ARG     6      63.555  34.647  51.949  1.00 99.99     0.174 HD
ATOM     67  HE  ARG     6      61.836  37.316  53.476  1.00 99.99     0.178 HD
ENDBRANCH  58  59
ENDBRANCH  57  58
ENDBRANCH  56  57
ENDBRANCH  55  56
BRANCH  55  68
ATOM     68  C   ARG     6      60.314  38.073  48.615  1.00  0.00     0.251 C 
ATOM     69  N   CYS     7      60.039  37.127  47.703  1.00  0.00    -0.337 N 
ATOM     70  H   CYS     7      60.741  36.767  47.086  1.00 99.99     0.164 HD
ATOM     71  O   ARG     6      59.463  38.505  49.388  1.00  0.00    -0.271 OA
BRANCH  69  72
ATOM     72  CA  CYS     7      58.723  36.483  47.532  1.00  0.00     0.170 C 
BRANCH  72  73
ATOM     73  CB  CYS     7      58.330  35.758  48.835  1.00  0.00     0.085 C 
BRANCH  73  74
ATOM     74  SG  CYS     7      59.506  34.538  49.530  1.00  0.00    -0.165 SA
ATOM     75  HG  CYS     7      60.585  34.987  48.900  1.00 99.99     0.102 HD
ENDBRANCH  73  74
ENDBRANCH  72  73
BRANCH  72  76
ATOM     76  C   CYS     7      57.639  37.540  47.212  1.00  0.00     0.252 C 
ATOM     77  O   CYS     7      56.495  37.439  47.663  1.00  0.00    -0.271 OA
ATOM     78  N   TRP     8      58.003  38.571  46.452  1.00  0.00    -0.337 N 
ATOM     79  H   TRP     8      58.948  38.737  46.175  1.00 99.99     0.164 HD
BRANCH  78  80
ATOM     80  CA  TRP     8      57.029  39.613  46.051  1.00  0.00     0.164 C 
BRANCH  80  81
ATOM     81  CB  TRP     8      57.715  40.955  45.770  1.00  0.00     0.059 C 
BRANCH  81  82
ATOM     82  CG  TRP     8      57.346  42.054  46.773  1.00  0.00    -0.016 A 
ATOM     83  CD1 TRP     8      57.691  43.336  46.745  1.00  0.00     0.097 A 
ATOM     84  NE1 TRP     8      57.135  43.974  47.778  1.00  0.00    -0.365 N 
ATOM     85  HE1 TRP     8      57.324  44.919  48.030  1.00 99.99     0.165 HD
ATOM     86  CE2 TRP     8      56.417  43.105  48.493  1.00  0.00     0.042 A 
ATOM     87  CZ2 TRP     8      55.659  43.229  49.647  1.00  0.00     0.030 A 
ATOM     88  CD2 TRP     8      56.548  41.867  47.889  1.00  0.00    -0.001 A 
ATOM     89  CH2 TRP     8      55.052  42.103  50.203  1.00  0.00     0.002 A 
ATOM     90  CZ3 TRP     8      55.211  40.861  49.608  1.00  0.00     0.001 A 
ATOM     91  CE3 TRP     8      55.959  40.742  48.443  1.00  0.00     0.014 A 
ENDBRANCH  81  82
ENDBRANCH  80  81
BRANCH  80  92
ATOM     92  C   TRP     8      56.125  39.184  44.891  1.00  0.00     0.251 C 
ATOM     93  O   TRP     8      55.166  39.849  44.501  1.00  0.00    -0.271 OA
ATOM     94  N   ILE     9      56.420  37.975  44.418  1.00  0.00    -0.338 N 
ATOM     95  H   ILE     9      57.119  37.408  44.854  1.00 99.99     0.164 HD
BRANCH  94  96
ATOM     96  CA  ILE     9      55.779  37.377  43.231  1.00  0.00     0.159 C 
BRANCH  96  97
ATOM     97  CB  ILE     9      54.353  36.897  43.598  1.00  0.00     0.029 C 
ATOM     98  CG2 ILE     9      53.908  35.758  42.666  1.00  0.00     0.002 C 
BRANCH  97  99
ATOM     99  CG1 ILE     9      54.297  36.435  45.068  1.00  0.00     0.002 C 
ATOM    100  CD  ILE     9      54.698  34.972  45.298  1.00  0.00     0.000 C 
ENDBRANCH  97  99
ENDBRANCH  96  97
BRANCH  96 101
ATOM    101  C   ILE     9      55.811  38.342  42.026  1.00  0.00     0.251 C 
ATOM    102  N   LYS    10      56.921  39.079  41.943  1.00  0.00    -0.338 N 
ATOM    103  H   LYS    10      57.566  39.084  42.708  1.00 99.99     0.164 HD
ATOM    104  O   ILE     9      54.803  38.536  41.348  1.00  0.00    -0.271 OA
BRANCH 102 105
ATOM    105  CA  LYS    10      57.318  39.962  40.819  1.00  0.00     0.159 C 
BRANCH 105 106
ATOM    106  C   LYS    10      58.003  39.264  39.613  1.00  0.00     0.251 C 
ATOM    107  O   LYS    10      59.133  38.784  39.684  1.00  0.00    -0.271 OA
ATOM    108  N   ILE    11      57.339  39.305  38.456  1.00  0.00    -0.338 N 
ATOM    109  H   ILE    11      56.457  39.760  38.374  1.00 99.99     0.164 HD
BRANCH 108 110
ATOM    110  CA  ILE    11      57.853  38.680  37.214  1.00  0.00     0.159 C 
BRANCH 110 111
ATOM    111  C   ILE    11      58.629  39.652  36.303  1.00  0.00     0.251 C 
ATOM    112  N   LYS    12      59.306  40.621  36.926  1.00  0.00    -0.338 N 
ATOM    113  H   LYS    12      59.172  40.804  37.899  1.00 99.99     0.164 HD
ATOM    114  O   ILE    11      58.629  39.508  35.082  1.00  0.00    -0.271 OA
BRANCH 112 115
ATOM    115  CA  LYS    12      60.208  41.562  36.224  1.00  0.00     0.159 C 
BRANCH 115 116
ATOM    116  C   LYS    12      61.661  41.050  36.161  1.00  0.00     0.251 C 
ATOM    117  O   LYS    12      62.005  40.126  35.425  1.00  0.00    -0.271 OA
ATOM    118  N   PHE    13      62.523  41.675  36.967  1.00  0.00    -0.337 N 
ATOM    119  H   PHE    13      62.216  42.297  37.683  1.00 99.99     0.164 HD
BRANCH 118 120
ATOM    120  CA  PHE    13      63.969  41.365  36.971  1.00  0.00     0.164 C 
BRANCH 120 121
ATOM    121  CB  PHE    13      64.768  42.433  36.206  1.00  0.00     0.056 C 
BRANCH 121 122
ATOM    122  CG  PHE    13      63.951  43.657  35.785  1.00  0.00    -0.044 A 
ATOM    123  CD1 PHE    13      63.695  44.670  36.704  1.00  0.00     0.008 A 
ATOM    124  CE1 PHE    13      62.936  45.769  36.336  1.00  0.00     0.001 A 
ATOM    125  CZ  PHE    13      62.422  45.862  35.043  1.00  0.00     0.000 A 
ATOM    126  CE2 PHE    13      62.692  44.855  34.122  1.00  0.00     0.001 A 
ATOM    127  CD2 PHE    13      63.448  43.755  34.492  1.00  0.00     0.008 A 
ENDBRANCH 121 122
ENDBRANCH 120 121
BRANCH 120 128
ATOM    128  C   PHE    13      64.552  41.139  38.377  1.00  0.00     0.251 C 
ATOM    129  N   ARG    14      65.613  40.334  38.415  1.00  0.00    -0.338 N 
ATOM    130  H   ARG    14      65.816  39.727  37.652  1.00 99.99     0.164 HD
ATOM    131  O   PHE    13      64.022  41.621  39.374  1.00  0.00    -0.271 OA
BRANCH 129 132
ATOM    132  CA  ARG    14      66.392  40.109  39.651  1.00  0.00     0.159 C 
BRANCH 132 133
ATOM    133  CB  ARG    14      66.669  41.428  40.392  1.00  0.00     0.034 C 
BRANCH 133 134
ATOM    134  CG  ARG    14      68.168  41.730  40.533  1.00  0.00     0.027 C 
BRANCH 134 135
ATOM    135  CD  ARG    14      68.803  42.125  39.193  1.00  0.00     0.116 C 
BRANCH 135 136
ATOM    136  NE  ARG    14      69.164  43.551  39.192  1.00  0.00    -0.212 N 
ATOM    137  CZ  ARG    14      70.372  44.069  39.461  1.00  0.00     0.666 C 
ATOM    138  NH1 ARG    14      71.431  43.309  39.698  1.00  0.00    -0.235 N 
ATOM    139  NH2 ARG    14      70.521  45.381  39.554  1.00  0.00    -0.235 N 
ATOM    140 2HH1 ARG    14      71.346  42.311  39.645  1.00 99.99     0.174 HD
ATOM    141 1HH1 ARG    14      72.318  43.719  39.898  1.00 99.99     0.174 HD
ATOM    142 2HH2 ARG    14      69.745  45.991  39.425  1.00 99.99     0.174 HD
ATOM    143 1HH2 ARG    14      71.425  45.753  39.761  1.00 99.99     0.174 HD
ATOM    144  HE  ARG    14      68.421  44.175  38.969  1.00 99.99     0.178 HD
ENDBRANCH 135 136
ENDBRANCH 134 135
ENDBRANCH 133 134
ENDBRANCH 132 133
BRANCH 132 145
ATOM    145  C   ARG    14      65.837  39.047  40.618  1.00  0.00     0.251 C 
ATOM    146  N   CYS    15      66.703  38.467  41.451  1.00  0.00    -0.337 N 
ATOM    147  H   CYS    15      67.646  38.773  41.535  1.00 99.99     0.164 HD
ATOM    148  O   ARG    14      64.636  38.790  40.629  1.00  0.00    -0.271 OA
BRANCH 146 149
ATOM    149  CA  CYS    15      66.323  37.396  42.396  1.00  0.00     0.170 C 
BRANCH 149 150
ATOM    150  C   CYS    15      66.302  37.828  43.873  1.00  0.00     0.252 C 
ATOM    151  N   LYS    16      67.421  38.433  44.276  1.00  0.00    -0.337 N 
ATOM    152  H   LYS    16      68.213  38.515  43.677  1.00 99.99     0.164 HD
ATOM    153  O   CYS    15      65.260  37.831  44.522  1.00  0.00    -0.271 OA
BRANCH 151 154
ATOM    154  CA  LYS    16      67.619  38.962  45.642  1.00  0.00     0.159 C 
BRANCH 154 155
ATOM    155  C   LYS    16      67.151  37.993  46.745  1.00  0.00     0.251 C 
ATOM    156  N   SER    17      66.053  38.373  47.403  1.00  0.00    -0.336 N 
ATOM    157  H   SER    17      65.590  39.231  47.178  1.00 99.99     0.164 HD
ATOM    158  O   LYS    16      67.784  36.977  47.043  1.00  0.00    -0.271 OA
BRANCH 156 159
ATOM    159  CA  SER    17      65.402  37.560  48.447  1.00  0.00     0.189 C 
BRANCH 159 160
ATOM    160  C   SER    17      66.362  37.256  49.608  1.00  0.00     0.253 C 
ATOM    161  O   SER    17      66.342  36.144  50.126  1.00  0.00    -0.270 OA
ATOM    162  N   LEU    18      67.048  38.284  50.116  1.00  0.00    -0.337 N 
ATOM    163  H   LEU    18      66.915  39.202  49.735  1.00 99.99     0.164 HD
BRANCH 162 164
ATOM    164  CA  LEU    18      68.034  38.185  51.205  1.00  0.00     0.159 C 
BRANCH 164 165
ATOM    165  C   LEU    18      67.620  38.910  52.492  1.00  0.00     0.251 C 
ATOM    166  O   LEU    18      66.496  39.378  52.642  1.00  0.00    -0.271 OA
ATOM    167  N   LYS    19      68.566  38.871  53.427  1.00  0.00    -0.338 N 
ATOM    168  H   LYS    19      69.419  38.377  53.278  1.00 99.99     0.164 HD
BRANCH 167 169
ATOM    169  CA  LYS    19      68.500  39.563  54.723  1.00  0.00     0.159 C 
BRANCH 169 170
ATOM    170  C   LYS    19      67.853  38.632  55.748  1.00  0.00     0.251 C 
ATOM    171  N   PHE    20      66.764  38.009  55.318  1.00  0.00    -0.336 N 
ATOM    172  H   PHE    20      66.374  38.201  54.418  1.00 99.99     0.164 HD
ATOM    173  O   LYS    19      68.302  38.532  56.891  1.00  0.00    -0.271 OA
BRANCH 171 174
ATOM    174  CA  PHE    20      66.068  36.973  56.103  1.00  0.00     0.172 C 
BRANCH 174 175
ATOM    175  CB  PHE    20      64.839  37.566  56.804  1.00  0.00     0.058 C 
BRANCH 175 176
ATOM    176  CG  PHE    20      65.067  37.831  58.300  1.00  0.00    -0.044 A 
ATOM    177  CD2 PHE    20      64.573  38.986  58.893  1.00  0.00     0.008 A 
ATOM    178  CE2 PHE    20      64.818  39.244  60.237  1.00  0.00     0.001 A 
ATOM    179  CZ  PHE    20      65.562  38.346  60.996  1.00  0.00     0.000 A 
ATOM    180  CE1 PHE    20      66.042  37.178  60.407  1.00  0.00     0.001 A 
ATOM    181  CD1 PHE    20      65.793  36.925  59.062  1.00  0.00     0.008 A 
ENDBRANCH 175 176
ENDBRANCH 174 175
BRANCH 174 182
ATOM    182  C   PHE    20      65.653  35.829  55.165  1.00  0.00     0.207 C 
ATOM    183  OXT PHE    20      64.500  35.374  55.304  1.00 99.99    -0.646 OA
ATOM    184  O   PHE    20      66.329  35.670  54.138  1.00 99.99    -0.646 OA
ENDBRANCH 174 182
ENDBRANCH 171 174
ENDBRANCH 169 170
BRANCH 169 185
ATOM    185  CB  LYS    19      67.648  40.836  54.616  1.00  0.00     0.032 C 
BRANCH 185 186
ATOM    186  CG  LYS    19      68.116  41.961  55.543  1.00  0.00     0.004 C 
BRANCH 186 187
ATOM    187  CD  LYS    19      69.293  42.746  54.952  1.00  0.00     0.032 C 
BRANCH 187 188
ATOM    188  CE  LYS    19      70.202  43.299  56.052  1.00  0.00     0.206 C 
BRANCH 188 189
ATOM    189  NZ  LYS    19      70.420  42.287  57.097  1.00  0.00    -0.064 N 
ATOM    190  HZ3 LYS    19      70.113  42.639  57.984  1.00 99.99     0.275 HD
ATOM    191  HZ1 LYS    19      69.923  41.448  56.885  1.00 99.99     0.275 HD
ATOM    192  HZ2 LYS    19      71.401  42.092  57.176  1.00 99.99     0.275 HD
ENDBRANCH 188 189
ENDBRANCH 187 188
ENDBRANCH 186 187
ENDBRANCH 185 186
ENDBRANCH 169 185
ENDBRANCH 167 169
ENDBRANCH 164 165
BRANCH 164 193
ATOM    193  CB  LEU    18      69.391  38.727  50.735  1.00  0.00     0.032 C 
BRANCH 193 194
ATOM    194  CG  LEU    18      70.451  37.635  50.546  1.00  0.00     0.002 C 
ATOM    195  CD1 LEU    18      70.617  36.854  51.850  1.00  0.00     0.000 C 
ATOM    196  CD2 LEU    18      70.064  36.668  49.419  1.00  0.00     0.000 C 
ENDBRANCH 193 194
ENDBRANCH 164 193
ENDBRANCH 162 164
ENDBRANCH 159 160
BRANCH 159 197
ATOM    197  CB  SER    17      64.744  36.299  47.859  1.00  0.00     0.169 C 
BRANCH 197 198
ATOM    198  OG  SER    17      63.898  36.597  46.742  1.00  0.00    -0.380 OA
ATOM    199  HG  SER    17      63.330  35.785  46.592  1.00 99.99     0.211 HD
ENDBRANCH 197 198
ENDBRANCH 159 197
ENDBRANCH 156 159
ENDBRANCH 154 155
BRANCH 154 200
ATOM    200  CB  LYS    16      66.933  40.332  45.773  1.00  0.00     0.032 C 
BRANCH 200 201
ATOM    201  CG  LYS    16      67.267  41.298  44.635  1.00  0.00     0.004 C 
BRANCH 201 202
ATOM    202  CD  LYS    16      66.019  42.112  44.285  1.00  0.00     0.032 C 
BRANCH 202 203
ATOM    203  CE  LYS    16      64.980  41.277  43.536  1.00  0.00     0.206 C 
BRANCH 203 204
ATOM    204  NZ  LYS    16      64.179  42.129  42.645  1.00  0.00    -0.064 N 
ATOM    205  HZ1 LYS    16      64.269  41.806  41.702  1.00 99.99     0.275 HD
ATOM    206  HZ2 LYS    16      63.217  42.088  42.920  1.00 99.99     0.275 HD
ATOM    207  HZ3 LYS    16      64.502  43.073  42.706  1.00 99.99     0.275 HD
ENDBRANCH 203 204
ENDBRANCH 202 203
ENDBRANCH 201 202
ENDBRANCH 200 201
ENDBRANCH 154 200
ENDBRANCH 151 154
ENDBRANCH 149 150
BRANCH 149 208
ATOM    208  CB  CYS    15      67.244  36.187  42.196  1.00  0.00     0.085 C 
BRANCH 208 209
ATOM    209  SG  CYS    15      67.889  35.996  40.492  1.00  0.00    -0.165 SA
ATOM    210  HG  CYS    15      67.598  34.704  40.383  1.00 99.99     0.102 HD
ENDBRANCH 208 209
ENDBRANCH 149 208
ENDBRANCH 146 149
ENDBRANCH 132 145
ENDBRANCH 129 132
ENDBRANCH 120 128
ENDBRANCH 118 120
ENDBRANCH 115 116
BRANCH 115 211
ATOM    211  CB  LYS    12      60.159  42.959  36.869  1.00  0.00     0.032 C 
BRANCH 211 212
ATOM    212  CG  LYS    12      59.254  43.958  36.142  1.00  0.00     0.004 C 
BRANCH 212 213
ATOM    213  CD  LYS    12      58.776  43.351  34.820  1.00  0.00     0.032 C 
BRANCH 213 214
ATOM    214  CE  LYS    12      59.433  44.026  33.614  1.00  0.00     0.206 C 
BRANCH 214 215
ATOM    215  NZ  LYS    12      59.096  45.457  33.563  1.00  0.00    -0.064 N 
ATOM    216  HZ3 LYS    12      59.160  45.849  34.481  1.00 99.99     0.275 HD
ATOM    217  HZ2 LYS    12      58.165  45.569  33.217  1.00 99.99     0.275 HD
ATOM    218  HZ1 LYS    12      59.735  45.928  32.956  1.00 99.99     0.275 HD
ENDBRANCH 214 215
ENDBRANCH 213 214
ENDBRANCH 212 213
ENDBRANCH 211 212
ENDBRANCH 115 211
ENDBRANCH 112 115
ENDBRANCH 110 111
BRANCH 110 219
ATOM    219  CB  ILE    11      56.740  37.954  36.428  1.00  0.00     0.029 C 
ATOM    220  CG2 ILE    11      56.720  36.471  36.830  1.00  0.00     0.002 C 
BRANCH 219 221
ATOM    221  CG1 ILE    11      55.361  38.623  36.575  1.00  0.00     0.002 C 
ATOM    222  CD  ILE    11      54.974  39.490  35.368  1.00  0.00     0.000 C 
ENDBRANCH 219 221
ENDBRANCH 110 219
ENDBRANCH 108 110
ENDBRANCH 105 106
BRANCH 105 223
ATOM    223  CB  LYS    10      58.143  41.128  41.399  1.00  0.00     0.032 C 
BRANCH 223 224
ATOM    224  CG  LYS    10      58.989  40.725  42.611  1.00  0.00     0.004 C 
BRANCH 224 225
ATOM    225  CD  LYS    10      60.411  41.276  42.505  1.00  0.00     0.032 C 
BRANCH 225 226
ATOM    226  CE  LYS    10      61.286  40.340  41.667  1.00  0.00     0.206 C 
BRANCH 226 227
ATOM    227  NZ  LYS    10      61.416  40.830  40.289  1.00  0.00    -0.064 N 
ATOM    228  HZ2 LYS    10      62.072  41.585  40.266  1.00 99.99     0.275 HD
ATOM    229  HZ3 LYS    10      61.739  40.090  39.699  1.00 99.99     0.275 HD
ATOM    230  HZ1 LYS    10      60.526  41.151  39.965  1.00 99.99     0.275 HD
ENDBRANCH 226 227
ENDBRANCH 225 226
ENDBRANCH 224 225
ENDBRANCH 223 224
ENDBRANCH 105 223
ENDBRANCH 102 105
ENDBRANCH  96 101
ENDBRANCH  94  96
ENDBRANCH  80  92
ENDBRANCH  78  80
ENDBRANCH  72  76
ENDBRANCH  69  72
ENDBRANCH  55  68
ENDBRANCH  52  55
ENDBRANCH  47  51
ENDBRANCH  31  44
ENDBRANCH  29  31
ENDBRANCH  26  27
BRANCH  26 231
ATOM    231  CB  LEU     3      62.505  40.176  53.866  1.00  0.00     0.032 C 
BRANCH 231 232
ATOM    232  CG  LEU     3      62.997  40.030  55.314  1.00  0.00     0.002 C 
ATOM    233  CD2 LEU     3      61.846  40.165  56.316  1.00  0.00     0.000 C 
ATOM    234  CD1 LEU     3      64.058  41.091  55.611  1.00  0.00     0.000 C 
ENDBRANCH 231 232
ENDBRANCH  26 231
ENDBRANCH  24  26
ENDBRANCH  18  22
ENDBRANCH  15  18
ENDBRANCH   5  14
ENDBRANCH   1   5
TORSDOF 98
ENDMDL
MODEL 5
REMARK VINA RESULT:      -2.5      5.182     10.658
REMARK WARNING: 32 MAX_TORS EXCEEDED!!!
REMARK  98 active torsions:
REMARK  status: ('A' for Active; 'I' for Inactive)
REMARK    1  A    between atoms: N_1  and  CA_2 
REMARK    2  A    between atoms: CA_2  and  CB_5 
REMARK    3  A    between atoms: CA_2  and  C_3 
REMARK       I    between atoms: C_3  and  N_16 
REMARK    4  A    between atoms: CB_5  and  CG_6 
REMARK    5  A    between atoms: CG_6  and  CD_7 
REMARK    6  A    between atoms: CD_7  and  CE_8 
REMARK    7  A    between atoms: CE_8  and  NZ_9 
REMARK    8  A    between atoms: N_16  and  CA_17 
REMARK    9  A    between atoms: CA_17  and  CB_20 
REMARK   10  A    between atoms: CA_17  and  C_18 
REMARK       I    between atoms: C_18  and  N_24 
REMARK   11  A    between atoms: CB_20  and  OG_21 
REMARK   12  A    between atoms: N_24  and  CA_25 
REMARK   13  A    between atoms: CA_25  and  C_26 
REMARK   14  A    between atoms: CA_25  and  CB_28 
REMARK       I    between atoms: C_26  and  N_33 
REMARK   15  A    between atoms: CB_28  and  CG_29 
REMARK   16  A    between atoms: N_33  and  CA_34 
REMARK   17  A    between atoms: CA_34  and  CB_37 
REMARK   18  A    between atoms: CA_34  and  C_35 
REMARK       I    between atoms: C_35  and  N_50 
REMARK   19  A    between atoms: CB_37  and  CG_38 
REMARK   20  A    between atoms: CG_38  and  CD_39 
REMARK   21  A    between atoms: CD_39  and  NE_40 
REMARK       I    between atoms: NE_40  and  CZ_41 
REMARK       I    between atoms: CZ_41  and  NH1_42 
REMARK       I    between atoms: CZ_41  and  NH2_43 
REMARK   22  A    between atoms: CA_51  and  C_52 
REMARK       I    between atoms: C_52  and  N_57 
REMARK   23  A    between atoms: N_57  and  CA_58 
REMARK   24  A    between atoms: CA_58  and  CB_61 
REMARK   25  A    between atoms: CA_58  and  C_59 
REMARK       I    between atoms: C_59  and  N_74 
REMARK   26  A    between atoms: CB_61  and  CG_62 
REMARK   27  A    between atoms: CG_62  and  CD_63 
REMARK   28  A    between atoms: CD_63  and  NE_64 
REMARK       I    between atoms: NE_64  and  CZ_65 
REMARK       I    between atoms: CZ_65  and  NH2_67 
REMARK       I    between atoms: CZ_65  and  NH1_66 
REMARK   29  A    between atoms: N_74  and  CA_75 
REMARK   30  A    between atoms: CA_75  and  CB_78 
REMARK   31  A    between atoms: CA_75  and  C_76 
REMARK       I    between atoms: C_76  and  N_82 
REMARK   32  A    between atoms: CB_78  and  SG_79 
REMARK   33  A    between atoms: N_82  and  CA_83 
REMARK   34  A    between atoms: CA_83  and  CB_86 
REMARK   35  A    between atoms: CA_83  and  C_84 
REMARK       I    between atoms: C_84  and  N_98 
REMARK   36  A    between atoms: CB_86  and  CG_87 
REMARK   37  A    between atoms: N_98  and  CA_99 
REMARK   38  A    between atoms: CA_99  and  CB_102 
REMARK   39  A    between atoms: CA_99  and  C_100 
REMARK       I    between atoms: C_100  and  N_107 
REMARK   40  A    between atoms: CB_102  and  CG1_103 
REMARK   41  A    between atoms: N_107  and  CA_108 
REMARK   42  A    between atoms: CA_108  and  C_109 
REMARK   43  A    between atoms: CA_108  and  CB_111 
REMARK       I    between atoms: C_109  and  N_120 
REMARK   44  A    between atoms: CB_111  and  CG_112 
REMARK   45  A    between atoms: CG_112  and  CD_113 
REMARK   46  A    between atoms: CD_113  and  CE_114 
REMARK   47  A    between atoms: CE_114  and  NZ_115 
REMARK   48  A    between atoms: N_120  and  CA_121 
REMARK   49  A    between atoms: CA_121  and  C_122 
REMARK   50  A    between atoms: CA_121  and  CB_124 
REMARK       I    between atoms: C_122  and  N_129 
REMARK   51  A    between atoms: CB_124  and  CG1_125 
REMARK   52  A    between atoms: N_129  and  CA_130 
REMARK   53  A    between atoms: CA_130  and  C_131 
REMARK   54  A    between atoms: CA_130  and  CB_133 
REMARK       I    between atoms: C_131  and  N_142 
REMARK   55  A    between atoms: CB_133  and  CG_134 
REMARK   56  A    between atoms: CG_134  and  CD_135 
REMARK   57  A    between atoms: CD_135  and  CE_136 
REMARK   58  A    between atoms: CE_136  and  NZ_137 
REMARK   59  A    between atoms: N_142  and  CA_143 
REMARK   60  A    between atoms: CA_143  and  CB_146 
REMARK   61  A    between atoms: CA_143  and  C_144 
REMARK       I    between atoms: C_144  and  N_154 
REMARK   62  A    between atoms: CB_146  and  CG_147 
REMARK   63  A    between atoms: N_154  and  CA_155 
REMARK   64  A    between atoms: CA_155  and  CB_158 
REMARK   65  A    between atoms: CA_155  and  C_156 
REMARK       I    between atoms: C_156  and  N_171 
REMARK   66  A    between atoms: CB_158  and  CG_159 
REMARK   67  A    between atoms: CG_159  and  CD_160 
REMARK   68  A    between atoms: CD_160  and  NE_161 
REMARK       I    between atoms: NE_161  and  CZ_162 
REMARK       I    between atoms: CZ_162  and  NH1_163 
REMARK   69  A    between atoms: N_171  and  CA_172 
REMARK   70  A    between atoms: CA_172  and  C_173 
REMARK   71  A    between atoms: CA_172  and  CB_175 
REMARK       I    between atoms: C_173  and  N_179 
REMARK   72  A    between atoms: CB_175  and  SG_176 
REMARK   73  A    between atoms: N_179  and  CA_180 
REMARK   74  A    between atoms: CA_180  and  C_181 
REMARK   75  A    between atoms: CA_180  and  CB_183 
REMARK       I    between atoms: C_181  and  N_192 
REMARK   76  A    between atoms: CB_183  and  CG_184 
REMARK   77  A    between atoms: CG_184  and  CD_185 
REMARK   78  A    between atoms: CD_185  and  CE_186 
REMARK   79  A    between atoms: CE_186  and  NZ_187 
REMARK   80  A    between atoms: N_192  and  CA_193 
REMARK   81  A    between atoms: CA_193  and  C_194 
REMARK   82  A    between atoms: CA_193  and  CB_196 
REMARK       I    between atoms: C_194  and  N_200 
REMARK   83  A    between atoms: CB_196  and  OG_197 
REMARK   84  A    between atoms: N_200  and  CA_201 
REMARK   85  A    between atoms: CA_201  and  C_202 
REMARK   86  A    between atoms: CA_201  and  CB_204 
REMARK       I    between atoms: C_202  and  N_209 
REMARK   87  A    between atoms: CB_204  and  CG_205 
REMARK   88  A    between atoms: N_209  and  CA_210 
REMARK   89  A    between atoms: CA_210  and  C_211 
REMARK   90  A    between atoms: CA_210  and  CB_213 
REMARK       I    between atoms: C_211  and  N_222 
REMARK   91  A    between atoms: CB_213  and  CG_214 
REMARK   92  A    between atoms: CG_214  and  CD_215 
REMARK   93  A    between atoms: CD_215  and  CE_216 
REMARK   94  A    between atoms: CE_216  and  NZ_217 
REMARK   95  A    between atoms: N_222  and  CA_223 
REMARK   96  A    between atoms: CA_223  and  CB_226 
REMARK   97  A    between atoms: CA_223  and  C_224 
REMARK   98  A    between atoms: CB_226  and  CG_227 
ROOT
ATOM      1  N   LYS     1      61.987  43.624  48.021  1.00  0.00    -0.058 N 
ATOM      2  H1  LYS     1      62.518  42.864  47.644  1.00 99.99     0.276 HD
ATOM      3  H2  LYS     1      61.036  43.385  47.979  1.00 99.99     0.276 HD
ATOM      4  H3  LYS     1      62.094  44.413  47.441  1.00 99.99     0.276 HD
ENDROOT
BRANCH   1   5
ATOM      5  CA  LYS     1      62.456  43.841  49.413  1.00  0.00     0.255 C 
BRANCH   5   6
ATOM      6  CB  LYS     1      62.484  45.342  49.764  1.00  0.00     0.040 C 
BRANCH   6   7
ATOM      7  CG  LYS     1      63.631  45.758  50.704  1.00  0.00     0.004 C 
BRANCH   7   8
ATOM      8  CD  LYS     1      64.994  45.718  50.001  1.00  0.00     0.032 C 
BRANCH   8   9
ATOM      9  CE  LYS     1      65.284  47.015  49.235  1.00  0.00     0.206 C 
BRANCH   9  10
ATOM     10  NZ  LYS     1      66.648  47.512  49.483  1.00  0.00    -0.064 N 
ATOM     11  HZ1 LYS     1      66.701  48.484  49.248  1.00 99.99     0.275 HD
ATOM     12  HZ2 LYS     1      66.881  47.396  50.448  1.00 99.99     0.275 HD
ATOM     13  HZ3 LYS     1      67.302  47.005  48.920  1.00 99.99     0.275 HD
ENDBRANCH   9  10
ENDBRANCH   8   9
ENDBRANCH   7   8
ENDBRANCH   6   7
ENDBRANCH   5   6
BRANCH   5  14
ATOM     14  C   LYS     1      61.472  43.107  50.340  1.00  0.00     0.259 C 
ATOM     15  N   SER     2      60.857  42.060  49.808  1.00  0.00    -0.336 N 
ATOM     16  H   SER     2      61.031  41.735  48.880  1.00 99.99     0.164 HD
ATOM     17  O   LYS     1      61.172  43.579  51.437  1.00  0.00    -0.271 OA
BRANCH  15  18
ATOM     18  CA  SER     2      59.854  41.269  50.544  1.00  0.00     0.189 C 
BRANCH  18  19
ATOM     19  CB  SER     2      58.606  41.072  49.663  1.00  0.00     0.169 C 
BRANCH  19  20
ATOM     20  OG  SER     2      57.560  40.356  50.352  1.00  0.00    -0.380 OA
ATOM     21  HG  SER     2      56.663  40.797  50.286  1.00 99.99     0.211 HD
ENDBRANCH  19  20
ENDBRANCH  18  19
BRANCH  18  22
ATOM     22  C   SER     2      60.514  39.920  50.881  1.00  0.00     0.253 C 
ATOM     23  O   SER     2      59.879  38.872  50.768  1.00  0.00    -0.270 OA
ATOM     24  N   LEU     3      61.835  39.908  51.058  1.00  0.00    -0.337 N 
ATOM     25  H   LEU     3      62.437  40.624  50.716  1.00 99.99     0.164 HD
BRANCH  24  26
ATOM     26  CA  LEU     3      62.488  38.694  51.589  1.00  0.00     0.159 C 
BRANCH  26  27
ATOM     27  C   LEU     3      62.083  38.430  53.055  1.00  0.00     0.251 C 
ATOM     28  O   LEU     3      62.316  39.251  53.945  1.00  0.00    -0.271 OA
ATOM     29  N   ARG     4      61.390  37.319  53.273  1.00  0.00    -0.338 N 
ATOM     30  H   ARG     4      61.099  36.734  52.518  1.00 99.99     0.164 HD
BRANCH  29  31
ATOM     31  CA  ARG     4      61.024  36.843  54.619  1.00  0.00     0.160 C 
BRANCH  31  32
ATOM     32  CB  ARG     4      62.269  36.316  55.345  1.00  0.00     0.034 C 
BRANCH  32  33
ATOM     33  CG  ARG     4      63.410  35.995  54.372  1.00  0.00     0.027 C 
BRANCH  33  34
ATOM     34  CD  ARG     4      64.789  36.219  54.999  1.00  0.00     0.116 C 
BRANCH  34  35
ATOM     35  NE  ARG     4      64.748  37.288  56.012  1.00  0.00    -0.212 N 
ATOM     36  CZ  ARG     4      65.037  38.579  55.822  1.00  0.00     0.666 C 
ATOM     37  NH1 ARG     4      65.385  39.054  54.627  1.00  0.00    -0.235 N 
ATOM     38  NH2 ARG     4      65.040  39.418  56.844  1.00  0.00    -0.235 N 
ATOM     39 2HH1 ARG     4      65.422  38.430  53.851  1.00 99.99     0.174 HD
ATOM     40 1HH1 ARG     4      65.591  40.022  54.512  1.00 99.99     0.174 HD
ATOM     41 1HH2 ARG     4      65.259  40.381  56.693  1.00 99.99     0.174 HD
ATOM     42 2HH2 ARG     4      64.835  39.096  57.767  1.00 99.99     0.174 HD
ATOM     43  HE  ARG     4      64.442  37.002  56.918  1.00 99.99     0.178 HD
ENDBRANCH  34  35
ENDBRANCH  33  34
ENDBRANCH  32  33
ENDBRANCH  31  32
BRANCH  31  44
ATOM     44  C   ARG     4      60.418  38.020  55.407  1.00  0.00     0.254 C 
ATOM     45  N   PRO     5      59.212  38.506  55.055  1.00  0.00    -0.312 N 
ATOM     46  CD  PRO     5      58.368  37.974  53.965  1.00  0.00     0.105 C 
ATOM     47  CA  PRO     5      58.550  39.679  55.685  1.00  0.00     0.163 C 
ATOM     48  CG  PRO     5      57.017  38.669  54.142  1.00  0.00     0.027 C 
ATOM     49  CB  PRO     5      57.408  40.026  54.721  1.00  0.00     0.034 C 
ATOM     50  O   ARG     4      61.054  38.404  56.390  1.00  0.00    -0.270 OA
BRANCH  47  51
ATOM     51  C   PRO     5      58.098  39.544  57.157  1.00  0.00     0.251 C 
ATOM     52  N   ARG     6      56.926  38.932  57.296  1.00  0.00    -0.338 N 
ATOM     53  H   ARG     6      56.384  38.783  56.470  1.00 99.99     0.164 HD
ATOM     54  O   PRO     5      58.665  40.125  58.077  1.00  0.00    -0.271 OA
BRANCH  52  55
ATOM     55  CA  ARG     6      56.277  38.414  58.516  1.00  0.00     0.159 C 
BRANCH  55  56
ATOM     56  CB  ARG     6      54.956  39.147  58.785  1.00  0.00     0.034 C 
BRANCH  56  57
ATOM     57  CG  ARG     6      55.074  40.668  58.643  1.00  0.00     0.027 C 
BRANCH  57  58
ATOM     58  CD  ARG     6      55.802  41.294  59.839  1.00  0.00     0.116 C 
BRANCH  58  59
ATOM     59  NE  ARG     6      55.921  42.752  59.677  1.00  0.00    -0.212 N 
ATOM     60  CZ  ARG     6      57.038  43.436  59.383  1.00  0.00     0.666 C 
ATOM     61  NH2 ARG     6      56.973  44.737  59.148  1.00  0.00    -0.235 N 
ATOM     62  NH1 ARG     6      58.212  42.837  59.241  1.00  0.00    -0.235 N 
ATOM     63 2HH2 ARG     6      56.102  45.221  59.177  1.00 99.99     0.174 HD
ATOM     64 1HH2 ARG     6      57.811  45.236  58.930  1.00 99.99     0.174 HD
ATOM     65 1HH1 ARG     6      59.028  43.372  59.024  1.00 99.99     0.174 HD
ATOM     66 2HH1 ARG     6      58.271  41.847  59.349  1.00 99.99     0.174 HD
ATOM     67  HE  ARG     6      55.076  43.262  59.800  1.00 99.99     0.178 HD
ENDBRANCH  58  59
ENDBRANCH  57  58
ENDBRANCH  56  57
ENDBRANCH  55  56
BRANCH  55  68
ATOM     68  C   ARG     6      55.987  36.901  58.422  1.00  0.00     0.251 C 
ATOM     69  N   CYS     7      54.702  36.516  58.467  1.00  0.00    -0.337 N 
ATOM     70  H   CYS     7      53.950  37.178  58.470  1.00 99.99     0.164 HD
ATOM     71  O   ARG     6      56.913  36.094  58.398  1.00  0.00    -0.271 OA
BRANCH  69  72
ATOM     72  CA  CYS     7      54.246  35.113  58.465  1.00  0.00     0.170 C 
BRANCH  72  73
ATOM     73  CB  CYS     7      53.833  34.701  59.892  1.00  0.00     0.085 C 
BRANCH  73  74
ATOM     74  SG  CYS     7      52.096  34.189  60.171  1.00  0.00    -0.165 SA
ATOM     75  HG  CYS     7      52.239  33.846  61.446  1.00 99.99     0.102 HD
ENDBRANCH  73  74
ENDBRANCH  72  73
BRANCH  72  76
ATOM     76  C   CYS     7      53.024  34.941  57.531  1.00  0.00     0.252 C 
ATOM     77  O   CYS     7      52.766  33.853  57.010  1.00  0.00    -0.271 OA
ATOM     78  N   TRP     8      52.254  36.010  57.337  1.00  0.00    -0.337 N 
ATOM     79  H   TRP     8      52.373  36.866  57.839  1.00 99.99     0.164 HD
BRANCH  78  80
ATOM     80  CA  TRP     8      51.086  35.961  56.426  1.00  0.00     0.164 C 
BRANCH  80  81
ATOM     81  CB  TRP     8      49.896  36.749  56.986  1.00  0.00     0.059 C 
BRANCH  81  82
ATOM     82  CG  TRP     8      48.686  35.870  57.329  1.00  0.00    -0.016 A 
ATOM     83  CD1 TRP     8      48.592  34.940  58.270  1.00  0.00     0.097 A 
ATOM     84  NE1 TRP     8      47.358  34.428  58.275  1.00  0.00    -0.365 N 
ATOM     85  HE1 TRP     8      47.070  33.647  58.824  1.00 99.99     0.165 HD
ATOM     86  CE2 TRP     8      46.634  35.027  57.329  1.00  0.00     0.042 A 
ATOM     87  CZ2 TRP     8      45.322  34.875  56.905  1.00  0.00     0.030 A 
ATOM     88  CD2 TRP     8      47.458  35.939  56.693  1.00  0.00    -0.001 A 
ATOM     89  CH2 TRP     8      44.850  35.624  55.827  1.00  0.00     0.002 A 
ATOM     90  CZ3 TRP     8      45.690  36.515  55.177  1.00  0.00     0.001 A 
ATOM     91  CE3 TRP     8      46.999  36.677  55.613  1.00  0.00     0.014 A 
ENDBRANCH  81  82
ENDBRANCH  80  81
BRANCH  80  92
ATOM     92  C   TRP     8      51.419  36.381  54.991  1.00  0.00     0.251 C 
ATOM     93  O   TRP     8      51.036  37.438  54.491  1.00  0.00    -0.271 OA
ATOM     94  N   ILE     9      52.076  35.443  54.311  1.00  0.00    -0.338 N 
ATOM     95  H   ILE     9      52.247  34.543  54.711  1.00 99.99     0.164 HD
BRANCH  94  96
ATOM     96  CA  ILE     9      52.613  35.637  52.951  1.00  0.00     0.159 C 
BRANCH  96  97
ATOM     97  CB  ILE     9      53.714  34.584  52.673  1.00  0.00     0.029 C 
ATOM     98  CG2 ILE     9      54.605  35.028  51.500  1.00  0.00     0.002 C 
BRANCH  97  99
ATOM     99  CG1 ILE     9      54.571  34.349  53.933  1.00  0.00     0.002 C 
ATOM    100  CD  ILE     9      56.030  34.810  53.814  1.00  0.00     0.000 C 
ENDBRANCH  97  99
ENDBRANCH  96  97
BRANCH  96 101
ATOM    101  C   ILE     9      51.487  35.642  51.895  1.00  0.00     0.251 C 
ATOM    102  N   LYS    10      51.288  36.825  51.309  1.00  0.00    -0.338 N 
ATOM    103  H   LYS    10      51.744  37.637  51.677  1.00 99.99     0.164 HD
ATOM    104  O   ILE     9      50.728  34.681  51.780  1.00  0.00    -0.271 OA
BRANCH 102 105
ATOM    105  CA  LYS    10      50.408  37.105  50.149  1.00  0.00     0.159 C 
BRANCH 105 106
ATOM    106  C   LYS    10      51.111  37.639  48.872  1.00  0.00     0.251 C 
ATOM    107  O   LYS    10      50.581  37.603  47.763  1.00  0.00    -0.271 OA
ATOM    108  N   ILE    11      52.373  38.047  49.024  1.00  0.00    -0.338 N 
ATOM    109  H   ILE    11      52.835  38.008  49.906  1.00 99.99     0.164 HD
BRANCH 108 110
ATOM    110  CA  ILE    11      53.179  38.590  47.905  1.00  0.00     0.159 C 
BRANCH 110 111
ATOM    111  C   ILE    11      53.972  37.518  47.131  1.00  0.00     0.251 C 
ATOM    112  N   LYS    12      53.728  37.445  45.820  1.00  0.00    -0.338 N 
ATOM    113  H   LYS    12      52.959  37.932  45.408  1.00 99.99     0.164 HD
ATOM    114  O   ILE    11      54.791  36.803  47.705  1.00  0.00    -0.271 OA
BRANCH 112 115
ATOM    115  CA  LYS    12      54.487  36.568  44.900  1.00  0.00     0.159 C 
BRANCH 115 116
ATOM    116  C   LYS    12      55.102  37.345  43.717  1.00  0.00     0.251 C 
ATOM    117  O   LYS    12      55.043  38.571  43.631  1.00  0.00    -0.271 OA
ATOM    118  N   PHE    13      55.697  36.595  42.788  1.00  0.00    -0.337 N 
ATOM    119  H   PHE    13      55.593  35.603  42.767  1.00 99.99     0.164 HD
BRANCH 118 120
ATOM    120  CA  PHE    13      56.408  37.184  41.632  1.00  0.00     0.164 C 
BRANCH 120 121
ATOM    121  CB  PHE    13      55.645  38.396  41.071  1.00  0.00     0.056 C 
BRANCH 121 122
ATOM    122  CG  PHE    13      55.449  38.377  39.554  1.00  0.00    -0.044 A 
ATOM    123  CD1 PHE    13      56.555  38.420  38.710  1.00  0.00     0.008 A 
ATOM    124  CE1 PHE    13      56.382  38.428  37.336  1.00  0.00     0.001 A 
ATOM    125  CZ  PHE    13      55.099  38.394  36.792  1.00  0.00     0.000 A 
ATOM    126  CE2 PHE    13      53.995  38.335  37.638  1.00  0.00     0.001 A 
ATOM    127  CD2 PHE    13      54.168  38.332  39.012  1.00  0.00     0.008 A 
ENDBRANCH 121 122
ENDBRANCH 120 121
BRANCH 120 128
ATOM    128  C   PHE    13      57.877  37.539  41.921  1.00  0.00     0.251 C 
ATOM    129  N   ARG    14      58.760  36.939  41.122  1.00  0.00    -0.338 N 
ATOM    130  H   ARG    14      58.500  36.136  40.594  1.00 99.99     0.164 HD
ATOM    131  O   PHE    13      58.187  38.266  42.860  1.00  0.00    -0.271 OA
BRANCH 129 132
ATOM    132  CA  ARG    14      60.202  37.261  41.155  1.00  0.00     0.159 C 
BRANCH 132 133
ATOM    133  CB  ARG    14      61.064  35.988  41.219  1.00  0.00     0.034 C 
BRANCH 133 134
ATOM    134  CG  ARG    14      62.470  36.247  41.779  1.00  0.00     0.027 C 
BRANCH 134 135
ATOM    135  CD  ARG    14      62.543  35.995  43.291  1.00  0.00     0.116 C 
BRANCH 135 136
ATOM    136  NE  ARG    14      62.366  37.251  44.034  1.00  0.00    -0.212 N 
ATOM    137  CZ  ARG    14      61.524  37.461  45.057  1.00  0.00     0.666 C 
ATOM    138  NH1 ARG    14      60.780  36.494  45.572  1.00  0.00    -0.235 N 
ATOM    139  NH2 ARG    14      61.373  38.682  45.546  1.00  0.00    -0.235 N 
ATOM    140 2HH1 ARG    14      60.865  35.560  45.215  1.00 99.99     0.174 HD
ATOM    141 1HH1 ARG    14      60.160  36.677  46.332  1.00 99.99     0.174 HD
ATOM    142 2HH2 ARG    14      61.880  39.450  45.164  1.00 99.99     0.174 HD
ATOM    143 1HH2 ARG    14      60.738  38.826  46.304  1.00 99.99     0.174 HD
ATOM    144  HE  ARG    14      62.937  38.007  43.728  1.00 99.99     0.178 HD
ENDBRANCH 135 136
ENDBRANCH 134 135
ENDBRANCH 133 134
ENDBRANCH 132 133
BRANCH 132 145
ATOM    145  C   ARG    14      60.711  38.209  40.054  1.00  0.00     0.251 C 
ATOM    146  N   CYS    15      60.606  37.791  38.792  1.00  0.00    -0.337 N 
ATOM    147  H   CYS    15      60.122  36.956  38.547  1.00 99.99     0.164 HD
ATOM    148  O   ARG    14      61.154  39.315  40.350  1.00  0.00    -0.271 OA
BRANCH 146 149
ATOM    149  CA  CYS    15      61.099  38.572  37.638  1.00  0.00     0.170 C 
BRANCH 149 150
ATOM    150  C   CYS    15      60.571  40.017  37.576  1.00  0.00     0.252 C 
ATOM    151  N   LYS    16      61.519  40.946  37.711  1.00  0.00    -0.337 N 
ATOM    152  H   LYS    16      62.464  40.701  37.911  1.00 99.99     0.164 HD
ATOM    153  O   CYS    15      59.432  40.264  37.190  1.00  0.00    -0.271 OA
BRANCH 151 154
ATOM    154  CA  LYS    16      61.255  42.399  37.653  1.00  0.00     0.159 C 
BRANCH 154 155
ATOM    155  C   LYS    16      60.161  42.860  38.637  1.00  0.00     0.251 C 
ATOM    156  N   SER    17      60.136  42.207  39.800  1.00  0.00    -0.336 N 
ATOM    157  H   SER    17      60.789  41.473  39.993  1.00 99.99     0.164 HD
ATOM    158  O   LYS    16      59.328  43.720  38.341  1.00  0.00    -0.271 OA
BRANCH 156 159
ATOM    159  CA  SER    17      59.213  42.536  40.904  1.00  0.00     0.189 C 
BRANCH 159 160
ATOM    160  C   SER    17      59.953  43.181  42.086  1.00  0.00     0.253 C 
ATOM    161  O   SER    17      60.401  44.316  41.964  1.00  0.00    -0.270 OA
ATOM    162  N   LEU    18      60.229  42.396  43.132  1.00  0.00    -0.337 N 
ATOM    163  H   LEU    18      59.954  41.433  43.111  1.00 99.99     0.164 HD
BRANCH 162 164
ATOM    164  CA  LEU    18      60.901  42.839  44.365  1.00  0.00     0.159 C 
BRANCH 164 165
ATOM    165  C   LEU    18      62.384  42.457  44.441  1.00  0.00     0.251 C 
ATOM    166  O   LEU    18      63.147  42.968  45.254  1.00  0.00    -0.271 OA
ATOM    167  N   LYS    19      62.698  41.460  43.616  1.00  0.00    -0.338 N 
ATOM    168  H   LYS    19      62.003  41.013  43.059  1.00 99.99     0.164 HD
BRANCH 167 169
ATOM    169  CA  LYS    19      64.058  40.946  43.393  1.00  0.00     0.159 C 
BRANCH 169 170
ATOM    170  C   LYS    19      64.579  40.343  44.698  1.00  0.00     0.251 C 
ATOM    171  N   PHE    20      65.309  41.169  45.434  1.00  0.00    -0.336 N 
ATOM    172  H   PHE    20      65.548  42.085  45.112  1.00 99.99     0.164 HD
ATOM    173  O   LYS    19      64.363  39.164  44.985  1.00  0.00    -0.271 OA
BRANCH 171 174
ATOM    174  CA  PHE    20      65.795  40.827  46.784  1.00  0.00     0.172 C 
BRANCH 174 175
ATOM    175  CB  PHE    20      67.248  41.285  46.964  1.00  0.00     0.058 C 
BRANCH 175 176
ATOM    176  CG  PHE    20      68.272  40.179  46.664  1.00  0.00    -0.044 A 
ATOM    177  CD2 PHE    20      68.739  39.986  45.371  1.00  0.00     0.008 A 
ATOM    178  CE2 PHE    20      69.633  38.958  45.095  1.00  0.00     0.001 A 
ATOM    179  CZ  PHE    20      70.063  38.114  46.114  1.00  0.00     0.000 A 
ATOM    180  CE1 PHE    20      69.609  38.319  47.415  1.00  0.00     0.001 A 
ATOM    181  CD1 PHE    20      68.716  39.350  47.686  1.00  0.00     0.008 A 
ENDBRANCH 175 176
ENDBRANCH 174 175
BRANCH 174 182
ATOM    182  C   PHE    20      64.885  41.493  47.827  1.00  0.00     0.207 C 
ATOM    183  OXT PHE    20      63.785  40.948  48.048  1.00 99.99    -0.646 OA
ATOM    184  O   PHE    20      65.418  42.294  48.609  1.00 99.99    -0.646 OA
ENDBRANCH 174 182
ENDBRANCH 171 174
ENDBRANCH 169 170
BRANCH 169 185
ATOM    185  CB  LYS    19      65.003  42.079  42.969  1.00  0.00     0.032 C 
BRANCH 185 186
ATOM    186  CG  LYS    19      66.341  41.580  42.416  1.00  0.00     0.004 C 
BRANCH 186 187
ATOM    187  CD  LYS    19      66.413  41.692  40.888  1.00  0.00     0.032 C 
BRANCH 187 188
ATOM    188  CE  LYS    19      67.837  41.461  40.379  1.00  0.00     0.206 C 
BRANCH 188 189
ATOM    189  NZ  LYS    19      68.642  42.683  40.530  1.00  0.00    -0.064 N 
ATOM    190  HZ3 LYS    19      68.249  43.267  41.244  1.00 99.99     0.275 HD
ATOM    191  HZ1 LYS    19      69.584  42.457  40.771  1.00 99.99     0.275 HD
ATOM    192  HZ2 LYS    19      68.625  43.204  39.673  1.00 99.99     0.275 HD
ENDBRANCH 188 189
ENDBRANCH 187 188
ENDBRANCH 186 187
ENDBRANCH 185 186
ENDBRANCH 169 185
ENDBRANCH 167 169
ENDBRANCH 164 165
BRANCH 164 193
ATOM    193  CB  LEU    18      60.170  42.276  45.592  1.00  0.00     0.032 C 
BRANCH 193 194
ATOM    194  CG  LEU    18      58.704  42.713  45.682  1.00  0.00     0.002 C 
ATOM    195  CD1 LEU    18      57.809  41.477  45.783  1.00  0.00     0.000 C 
ATOM    196  CD2 LEU    18      58.462  43.616  46.899  1.00  0.00     0.000 C 
ENDBRANCH 193 194
ENDBRANCH 164 193
ENDBRANCH 162 164
ENDBRANCH 159 160
BRANCH 159 197
ATOM    197  CB  SER    17      58.359  41.323  41.313  1.00  0.00     0.169 C 
BRANCH 197 198
ATOM    198  OG  SER    17      57.066  41.335  40.695  1.00  0.00    -0.380 OA
ATOM    199  HG  SER    17      56.500  40.687  41.208  1.00 99.99     0.211 HD
ENDBRANCH 197 198
ENDBRANCH 159 197
ENDBRANCH 156 159
ENDBRANCH 154 155
BRANCH 154 200
ATOM    200  CB  LYS    16      60.917  42.810  36.211  1.00  0.00     0.032 C 
BRANCH 200 201
ATOM    201  CG  LYS    16      61.740  43.995  35.701  1.00  0.00     0.004 C 
BRANCH 201 202
ATOM    202  CD  LYS    16      61.694  44.016  34.171  1.00  0.00     0.032 C 
BRANCH 202 203
ATOM    203  CE  LYS    16      61.523  45.432  33.620  1.00  0.00     0.206 C 
BRANCH 203 204
ATOM    204  NZ  LYS    16      61.778  46.428  34.671  1.00  0.00    -0.064 N 
ATOM    205  HZ1 LYS    16      62.732  46.724  34.628  1.00 99.99     0.275 HD
ATOM    206  HZ2 LYS    16      61.178  47.218  34.535  1.00 99.99     0.275 HD
ATOM    207  HZ3 LYS    16      61.596  46.023  35.567  1.00 99.99     0.275 HD
ENDBRANCH 203 204
ENDBRANCH 202 203
ENDBRANCH 201 202
ENDBRANCH 200 201
ENDBRANCH 154 200
ENDBRANCH 151 154
ENDBRANCH 149 150
BRANCH 149 208
ATOM    208  CB  CYS    15      60.782  37.822  36.339  1.00  0.00     0.085 C 
BRANCH 208 209
ATOM    209  SG  CYS    15      61.950  36.469  35.939  1.00  0.00    -0.165 SA
ATOM    210  HG  CYS    15      62.614  36.520  37.090  1.00 99.99     0.102 HD
ENDBRANCH 208 209
ENDBRANCH 149 208
ENDBRANCH 146 149
ENDBRANCH 132 145
ENDBRANCH 129 132
ENDBRANCH 120 128
ENDBRANCH 118 120
ENDBRANCH 115 116
BRANCH 115 211
ATOM    211  CB  LYS    12      53.607  35.415  44.384  1.00  0.00     0.032 C 
BRANCH 211 212
ATOM    212  CG  LYS    12      52.133  35.783  44.197  1.00  0.00     0.004 C 
BRANCH 212 213
ATOM    213  CD  LYS    12      51.249  34.651  44.726  1.00  0.00     0.032 C 
BRANCH 213 214
ATOM    214  CE  LYS    12      49.929  35.179  45.294  1.00  0.00     0.206 C 
BRANCH 214 215
ATOM    215  NZ  LYS    12      49.844  36.641  45.157  1.00  0.00    -0.064 N 
ATOM    216  HZ3 LYS    12      50.765  37.028  45.119  1.00 99.99     0.275 HD
ATOM    217  HZ2 LYS    12      49.354  37.023  45.940  1.00 99.99     0.275 HD
ATOM    218  HZ1 LYS    12      49.354  36.868  44.315  1.00 99.99     0.275 HD
ENDBRANCH 214 215
ENDBRANCH 213 214
ENDBRANCH 212 213
ENDBRANCH 211 212
ENDBRANCH 115 211
ENDBRANCH 112 115
ENDBRANCH 110 111
BRANCH 110 219
ATOM    219  CB  ILE    11      54.104  39.739  48.363  1.00  0.00     0.029 C 
ATOM    220  CG2 ILE    11      54.934  40.230  47.166  1.00  0.00     0.002 C 
BRANCH 219 221
ATOM    221  CG1 ILE    11      53.347  40.882  49.064  1.00  0.00     0.002 C 
ATOM    222  CD  ILE    11      54.213  41.661  50.064  1.00  0.00     0.000 C 
ENDBRANCH 219 221
ENDBRANCH 110 219
ENDBRANCH 108 110
ENDBRANCH 105 106
BRANCH 105 223
ATOM    223  CB  LYS    10      49.255  38.006  50.634  1.00  0.00     0.032 C 
BRANCH 223 224
ATOM    224  CG  LYS    10      47.917  37.691  49.956  1.00  0.00     0.004 C 
BRANCH 224 225
ATOM    225  CD  LYS    10      46.800  37.517  50.985  1.00  0.00     0.032 C 
BRANCH 225 226
ATOM    226  CE  LYS    10      46.723  36.061  51.450  1.00  0.00     0.206 C 
BRANCH 226 227
ATOM    227  NZ  LYS    10      45.471  35.430  51.011  1.00  0.00    -0.064 N 
ATOM    228  HZ2 LYS    10      45.480  34.464  51.267  1.00 99.99     0.275 HD
ATOM    229  HZ3 LYS    10      44.696  35.885  51.448  1.00 99.99     0.275 HD
ATOM    230  HZ1 LYS    10      45.389  35.512  50.018  1.00 99.99     0.275 HD
ENDBRANCH 226 227
ENDBRANCH 225 226
ENDBRANCH 224 225
ENDBRANCH 223 224
ENDBRANCH 105 223
ENDBRANCH 102 105
ENDBRANCH  96 101
ENDBRANCH  94  96
ENDBRANCH  80  92
ENDBRANCH  78  80
ENDBRANCH  72  76
ENDBRANCH  69  72
ENDBRANCH  55  68
ENDBRANCH  52  55
ENDBRANCH  47  51
ENDBRANCH  31  44
ENDBRANCH  29  31
ENDBRANCH  26  27
BRANCH  26 231
ATOM    231  CB  LEU     3      64.012  38.768  51.372  1.00  0.00     0.032 C 
BRANCH 231 232
ATOM    232  CG  LEU     3      64.519  37.751  50.339  1.00  0.00     0.002 C 
ATOM    233  CD2 LEU     3      65.723  38.292  49.560  1.00  0.00     0.000 C 
ATOM    234  CD1 LEU     3      63.397  37.399  49.362  1.00  0.00     0.000 C 
ENDBRANCH 231 232
ENDBRANCH  26 231
ENDBRANCH  24  26
ENDBRANCH  18  22
ENDBRANCH  15  18
ENDBRANCH   5  14
ENDBRANCH   1   5
TORSDOF 98
ENDMDL
MODEL 6
REMARK VINA RESULT:      -2.4      3.225     10.605
REMARK WARNING: 32 MAX_TORS EXCEEDED!!!
REMARK  98 active torsions:
REMARK  status: ('A' for Active; 'I' for Inactive)
REMARK    1  A    between atoms: N_1  and  CA_2 
REMARK    2  A    between atoms: CA_2  and  CB_5 
REMARK    3  A    between atoms: CA_2  and  C_3 
REMARK       I    between atoms: C_3  and  N_16 
REMARK    4  A    between atoms: CB_5  and  CG_6 
REMARK    5  A    between atoms: CG_6  and  CD_7 
REMARK    6  A    between atoms: CD_7  and  CE_8 
REMARK    7  A    between atoms: CE_8  and  NZ_9 
REMARK    8  A    between atoms: N_16  and  CA_17 
REMARK    9  A    between atoms: CA_17  and  CB_20 
REMARK   10  A    between atoms: CA_17  and  C_18 
REMARK       I    between atoms: C_18  and  N_24 
REMARK   11  A    between atoms: CB_20  and  OG_21 
REMARK   12  A    between atoms: N_24  and  CA_25 
REMARK   13  A    between atoms: CA_25  and  C_26 
REMARK   14  A    between atoms: CA_25  and  CB_28 
REMARK       I    between atoms: C_26  and  N_33 
REMARK   15  A    between atoms: CB_28  and  CG_29 
REMARK   16  A    between atoms: N_33  and  CA_34 
REMARK   17  A    between atoms: CA_34  and  CB_37 
REMARK   18  A    between atoms: CA_34  and  C_35 
REMARK       I    between atoms: C_35  and  N_50 
REMARK   19  A    between atoms: CB_37  and  CG_38 
REMARK   20  A    between atoms: CG_38  and  CD_39 
REMARK   21  A    between atoms: CD_39  and  NE_40 
REMARK       I    between atoms: NE_40  and  CZ_41 
REMARK       I    between atoms: CZ_41  and  NH1_42 
REMARK       I    between atoms: CZ_41  and  NH2_43 
REMARK   22  A    between atoms: CA_51  and  C_52 
REMARK       I    between atoms: C_52  and  N_57 
REMARK   23  A    between atoms: N_57  and  CA_58 
REMARK   24  A    between atoms: CA_58  and  CB_61 
REMARK   25  A    between atoms: CA_58  and  C_59 
REMARK       I    between atoms: C_59  and  N_74 
REMARK   26  A    between atoms: CB_61  and  CG_62 
REMARK   27  A    between atoms: CG_62  and  CD_63 
REMARK   28  A    between atoms: CD_63  and  NE_64 
REMARK       I    between atoms: NE_64  and  CZ_65 
REMARK       I    between atoms: CZ_65  and  NH2_67 
REMARK       I    between atoms: CZ_65  and  NH1_66 
REMARK   29  A    between atoms: N_74  and  CA_75 
REMARK   30  A    between atoms: CA_75  and  CB_78 
REMARK   31  A    between atoms: CA_75  and  C_76 
REMARK       I    between atoms: C_76  and  N_82 
REMARK   32  A    between atoms: CB_78  and  SG_79 
REMARK   33  A    between atoms: N_82  and  CA_83 
REMARK   34  A    between atoms: CA_83  and  CB_86 
REMARK   35  A    between atoms: CA_83  and  C_84 
REMARK       I    between atoms: C_84  and  N_98 
REMARK   36  A    between atoms: CB_86  and  CG_87 
REMARK   37  A    between atoms: N_98  and  CA_99 
REMARK   38  A    between atoms: CA_99  and  CB_102 
REMARK   39  A    between atoms: CA_99  and  C_100 
REMARK       I    between atoms: C_100  and  N_107 
REMARK   40  A    between atoms: CB_102  and  CG1_103 
REMARK   41  A    between atoms: N_107  and  CA_108 
REMARK   42  A    between atoms: CA_108  and  C_109 
REMARK   43  A    between atoms: CA_108  and  CB_111 
REMARK       I    between atoms: C_109  and  N_120 
REMARK   44  A    between atoms: CB_111  and  CG_112 
REMARK   45  A    between atoms: CG_112  and  CD_113 
REMARK   46  A    between atoms: CD_113  and  CE_114 
REMARK   47  A    between atoms: CE_114  and  NZ_115 
REMARK   48  A    between atoms: N_120  and  CA_121 
REMARK   49  A    between atoms: CA_121  and  C_122 
REMARK   50  A    between atoms: CA_121  and  CB_124 
REMARK       I    between atoms: C_122  and  N_129 
REMARK   51  A    between atoms: CB_124  and  CG1_125 
REMARK   52  A    between atoms: N_129  and  CA_130 
REMARK   53  A    between atoms: CA_130  and  C_131 
REMARK   54  A    between atoms: CA_130  and  CB_133 
REMARK       I    between atoms: C_131  and  N_142 
REMARK   55  A    between atoms: CB_133  and  CG_134 
REMARK   56  A    between atoms: CG_134  and  CD_135 
REMARK   57  A    between atoms: CD_135  and  CE_136 
REMARK   58  A    between atoms: CE_136  and  NZ_137 
REMARK   59  A    between atoms: N_142  and  CA_143 
REMARK   60  A    between atoms: CA_143  and  CB_146 
REMARK   61  A    between atoms: CA_143  and  C_144 
REMARK       I    between atoms: C_144  and  N_154 
REMARK   62  A    between atoms: CB_146  and  CG_147 
REMARK   63  A    between atoms: N_154  and  CA_155 
REMARK   64  A    between atoms: CA_155  and  CB_158 
REMARK   65  A    between atoms: CA_155  and  C_156 
REMARK       I    between atoms: C_156  and  N_171 
REMARK   66  A    between atoms: CB_158  and  CG_159 
REMARK   67  A    between atoms: CG_159  and  CD_160 
REMARK   68  A    between atoms: CD_160  and  NE_161 
REMARK       I    between atoms: NE_161  and  CZ_162 
REMARK       I    between atoms: CZ_162  and  NH1_163 
REMARK   69  A    between atoms: N_171  and  CA_172 
REMARK   70  A    between atoms: CA_172  and  C_173 
REMARK   71  A    between atoms: CA_172  and  CB_175 
REMARK       I    between atoms: C_173  and  N_179 
REMARK   72  A    between atoms: CB_175  and  SG_176 
REMARK   73  A    between atoms: N_179  and  CA_180 
REMARK   74  A    between atoms: CA_180  and  C_181 
REMARK   75  A    between atoms: CA_180  and  CB_183 
REMARK       I    between atoms: C_181  and  N_192 
REMARK   76  A    between atoms: CB_183  and  CG_184 
REMARK   77  A    between atoms: CG_184  and  CD_185 
REMARK   78  A    between atoms: CD_185  and  CE_186 
REMARK   79  A    between atoms: CE_186  and  NZ_187 
REMARK   80  A    between atoms: N_192  and  CA_193 
REMARK   81  A    between atoms: CA_193  and  C_194 
REMARK   82  A    between atoms: CA_193  and  CB_196 
REMARK       I    between atoms: C_194  and  N_200 
REMARK   83  A    between atoms: CB_196  and  OG_197 
REMARK   84  A    between atoms: N_200  and  CA_201 
REMARK   85  A    between atoms: CA_201  and  C_202 
REMARK   86  A    between atoms: CA_201  and  CB_204 
REMARK       I    between atoms: C_202  and  N_209 
REMARK   87  A    between atoms: CB_204  and  CG_205 
REMARK   88  A    between atoms: N_209  and  CA_210 
REMARK   89  A    between atoms: CA_210  and  C_211 
REMARK   90  A    between atoms: CA_210  and  CB_213 
REMARK       I    between atoms: C_211  and  N_222 
REMARK   91  A    between atoms: CB_213  and  CG_214 
REMARK   92  A    between atoms: CG_214  and  CD_215 
REMARK   93  A    between atoms: CD_215  and  CE_216 
REMARK   94  A    between atoms: CE_216  and  NZ_217 
REMARK   95  A    between atoms: N_222  and  CA_223 
REMARK   96  A    between atoms: CA_223  and  CB_226 
REMARK   97  A    between atoms: CA_223  and  C_224 
REMARK   98  A    between atoms: CB_226  and  CG_227 
ROOT
ATOM      1  N   LYS     1      53.170  36.474  44.752  1.00  0.00    -0.058 N 
ATOM      2  H1  LYS     1      52.956  37.391  44.413  1.00 99.99     0.276 HD
ATOM      3  H2  LYS     1      54.140  36.343  44.692  1.00 99.99     0.276 HD
ATOM      4  H3  LYS     1      52.768  35.805  44.151  1.00 99.99     0.276 HD
ENDROOT
BRANCH   1   5
ATOM      5  CA  LYS     1      52.671  36.394  46.148  1.00  0.00     0.255 C 
BRANCH   5   6
ATOM      6  CB  LYS     1      51.830  35.119  46.367  1.00  0.00     0.040 C 
BRANCH   6   7
ATOM      7  CG  LYS     1      50.344  35.263  45.991  1.00  0.00     0.004 C 
BRANCH   7   8
ATOM      8  CD  LYS     1      49.920  36.732  45.866  1.00  0.00     0.032 C 
BRANCH   8   9
ATOM      9  CE  LYS     1      49.247  37.024  44.519  1.00  0.00     0.206 C 
BRANCH   9  10
ATOM     10  NZ  LYS     1      48.054  37.874  44.668  1.00  0.00    -0.064 N 
ATOM     11  HZ1 LYS     1      47.355  37.593  44.009  1.00 99.99     0.275 HD
ATOM     12  HZ2 LYS     1      47.686  37.783  45.593  1.00 99.99     0.275 HD
ATOM     13  HZ3 LYS     1      48.295  38.830  44.500  1.00 99.99     0.275 HD
ENDBRANCH   9  10
ENDBRANCH   8   9
ENDBRANCH   7   8
ENDBRANCH   6   7
ENDBRANCH   5   6
BRANCH   5  14
ATOM     14  C   LYS     1      53.905  36.368  47.066  1.00  0.00     0.259 C 
ATOM     15  N   SER     2      53.756  35.710  48.208  1.00  0.00    -0.336 N 
ATOM     16  H   SER     2      52.917  35.230  48.458  1.00 99.99     0.164 HD
ATOM     17  O   LYS     1      54.893  37.058  46.810  1.00  0.00    -0.271 OA
BRANCH  15  18
ATOM     18  CA  SER     2      54.825  35.621  49.219  1.00  0.00     0.189 C 
BRANCH  18  19
ATOM     19  CB  SER     2      56.194  35.546  48.516  1.00  0.00     0.169 C 
BRANCH  19  20
ATOM     20  OG  SER     2      57.268  35.283  49.441  1.00  0.00    -0.380 OA
ATOM     21  HG  SER     2      57.341  34.320  49.708  1.00 99.99     0.211 HD
ENDBRANCH  19  20
ENDBRANCH  18  19
BRANCH  18  22
ATOM     22  C   SER     2      54.717  36.885  50.090  1.00  0.00     0.253 C 
ATOM     23  O   SER     2      54.396  36.797  51.275  1.00  0.00    -0.270 OA
ATOM     24  N   LEU     3      55.209  38.019  49.592  1.00  0.00    -0.337 N 
ATOM     25  H   LEU     3      55.873  38.047  48.851  1.00 99.99     0.164 HD
BRANCH  24  26
ATOM     26  CA  LEU     3      54.943  39.295  50.287  1.00  0.00     0.159 C 
BRANCH  26  27
ATOM     27  C   LEU     3      56.111  39.687  51.216  1.00  0.00     0.251 C 
ATOM     28  O   LEU     3      57.139  39.010  51.279  1.00  0.00    -0.271 OA
ATOM     29  N   ARG     4      55.975  40.839  51.864  1.00  0.00    -0.338 N 
ATOM     30  H   ARG     4      55.192  41.435  51.699  1.00 99.99     0.164 HD
BRANCH  29  31
ATOM     31  CA  ARG     4      56.929  41.314  52.881  1.00  0.00     0.160 C 
BRANCH  31  32
ATOM     32  CB  ARG     4      57.329  40.156  53.805  1.00  0.00     0.034 C 
BRANCH  32  33
ATOM     33  CG  ARG     4      56.395  40.035  55.015  1.00  0.00     0.027 C 
BRANCH  33  34
ATOM     34  CD  ARG     4      56.330  38.605  55.559  1.00  0.00     0.116 C 
BRANCH  34  35
ATOM     35  NE  ARG     4      56.017  38.595  56.999  1.00  0.00    -0.212 N 
ATOM     36  CZ  ARG     4      56.356  39.526  57.896  1.00  0.00     0.666 C 
ATOM     37  NH1 ARG     4      57.025  40.625  57.551  1.00  0.00    -0.235 N 
ATOM     38  NH2 ARG     4      56.082  39.348  59.177  1.00  0.00    -0.235 N 
ATOM     39 2HH1 ARG     4      57.273  40.760  56.595  1.00 99.99     0.174 HD
ATOM     40 1HH1 ARG     4      57.263  41.305  58.239  1.00 99.99     0.174 HD
ATOM     41 1HH2 ARG     4      56.341  40.047  59.840  1.00 99.99     0.174 HD
ATOM     42 2HH2 ARG     4      55.627  38.514  59.488  1.00 99.99     0.174 HD
ATOM     43  HE  ARG     4      55.470  37.819  57.309  1.00 99.99     0.178 HD
ENDBRANCH  34  35
ENDBRANCH  33  34
ENDBRANCH  32  33
ENDBRANCH  31  32
BRANCH  31  44
ATOM     44  C   ARG     4      58.177  41.866  52.165  1.00  0.00     0.254 C 
ATOM     45  N   PRO     5      59.399  41.622  52.674  1.00  0.00    -0.312 N 
ATOM     46  CD  PRO     5      59.670  40.816  53.883  1.00  0.00     0.105 C 
ATOM     47  CA  PRO     5      60.673  42.153  52.122  1.00  0.00     0.163 C 
ATOM     48  CG  PRO     5      61.185  40.612  53.886  1.00  0.00     0.027 C 
ATOM     49  CB  PRO     5      61.701  41.891  53.231  1.00  0.00     0.034 C 
ATOM     50  O   ARG     4      57.981  42.443  51.093  1.00  0.00    -0.270 OA
BRANCH  47  51
ATOM     51  C   PRO     5      61.121  41.646  50.732  1.00  0.00     0.251 C 
ATOM     52  N   ARG     6      60.718  42.424  49.731  1.00  0.00    -0.338 N 
ATOM     53  H   ARG     6      60.044  43.131  49.940  1.00 99.99     0.164 HD
ATOM     54  O   PRO     5      61.617  40.537  50.562  1.00  0.00    -0.271 OA
BRANCH  52  55
ATOM     55  CA  ARG     6      61.126  42.414  48.313  1.00  0.00     0.159 C 
BRANCH  55  56
ATOM     56  CB  ARG     6      62.394  43.253  48.104  1.00  0.00     0.034 C 
BRANCH  56  57
ATOM     57  CG  ARG     6      63.252  43.368  49.367  1.00  0.00     0.027 C 
BRANCH  57  58
ATOM     58  CD  ARG     6      63.438  44.829  49.795  1.00  0.00     0.116 C 
BRANCH  58  59
ATOM     59  NE  ARG     6      64.847  45.107  50.119  1.00  0.00    -0.212 N 
ATOM     60  CZ  ARG     6      65.532  46.223  49.819  1.00  0.00     0.666 C 
ATOM     61  NH2 ARG     6      66.761  46.386  50.281  1.00  0.00    -0.235 N 
ATOM     62  NH1 ARG     6      64.989  47.217  49.132  1.00  0.00    -0.235 N 
ATOM     63 2HH2 ARG     6      67.190  45.695  50.858  1.00 99.99     0.174 HD
ATOM     64 1HH2 ARG     6      67.262  47.220  50.051  1.00 99.99     0.174 HD
ATOM     65 1HH1 ARG     6      65.522  48.035  48.922  1.00 99.99     0.174 HD
ATOM     66 2HH1 ARG     6      64.040  47.142  48.831  1.00 99.99     0.174 HD
ATOM     67  HE  ARG     6      65.318  44.383  50.612  1.00 99.99     0.178 HD
ENDBRANCH  58  59
ENDBRANCH  57  58
ENDBRANCH  56  57
ENDBRANCH  55  56
BRANCH  55  68
ATOM     68  C   ARG     6      61.393  40.985  47.795  1.00  0.00     0.251 C 
ATOM     69  N   CYS     7      60.351  40.139  47.754  1.00  0.00    -0.337 N 
ATOM     70  H   CYS     7      59.418  40.438  47.962  1.00 99.99     0.164 HD
ATOM     71  O   ARG     6      62.537  40.629  47.522  1.00  0.00    -0.271 OA
BRANCH  69  72
ATOM     72  CA  CYS     7      60.437  38.721  47.359  1.00  0.00     0.170 C 
BRANCH  72  73
ATOM     73  CB  CYS     7      60.280  37.826  48.605  1.00  0.00     0.085 C 
BRANCH  73  74
ATOM     74  SG  CYS     7      61.782  37.036  49.293  1.00  0.00    -0.165 SA
ATOM     75  HG  CYS     7      62.502  37.075  48.178  1.00 99.99     0.102 HD
ENDBRANCH  73  74
ENDBRANCH  72  73
BRANCH  72  76
ATOM     76  C   CYS     7      59.313  38.367  46.356  1.00  0.00     0.252 C 
ATOM     77  O   CYS     7      58.636  37.345  46.489  1.00  0.00    -0.271 OA
ATOM     78  N   TRP     8      59.096  39.226  45.362  1.00  0.00    -0.337 N 
ATOM     79  H   TRP     8      59.548  40.115  45.301  1.00 99.99     0.164 HD
BRANCH  78  80
ATOM     80  CA  TRP     8      58.073  38.958  44.324  1.00  0.00     0.164 C 
BRANCH  80  81
ATOM     81  CB  TRP     8      56.981  40.034  44.311  1.00  0.00     0.059 C 
BRANCH  81  82
ATOM     82  CG  TRP     8      56.833  40.774  45.646  1.00  0.00    -0.016 A 
ATOM     83  CD1 TRP     8      56.109  40.421  46.701  1.00  0.00     0.097 A 
ATOM     84  NE1 TRP     8      56.278  41.312  47.681  1.00  0.00    -0.365 N 
ATOM     85  HE1 TRP     8      55.765  41.319  48.536  1.00 99.99     0.165 HD
ATOM     86  CE2 TRP     8      57.121  42.260  47.269  1.00  0.00     0.042 A 
ATOM     87  CZ2 TRP     8      57.624  43.404  47.870  1.00  0.00     0.030 A 
ATOM     88  CD2 TRP     8      57.477  41.957  45.966  1.00  0.00    -0.001 A 
ATOM     89  CH2 TRP     8      58.467  44.252  47.151  1.00  0.00     0.002 A 
ATOM     90  CZ3 TRP     8      58.797  43.957  45.837  1.00  0.00     0.001 A 
ATOM     91  CE3 TRP     8      58.303  42.802  45.242  1.00  0.00     0.014 A 
ENDBRANCH  81  82
ENDBRANCH  80  81
BRANCH  80  92
ATOM     92  C   TRP     8      58.667  38.737  42.930  1.00  0.00     0.251 C 
ATOM     93  O   TRP     8      58.765  37.628  42.405  1.00  0.00    -0.271 OA
ATOM     94  N   ILE     9      59.159  39.851  42.389  1.00  0.00    -0.338 N 
ATOM     95  H   ILE     9      59.184  40.706  42.906  1.00 99.99     0.164 HD
BRANCH  94  96
ATOM     96  CA  ILE     9      59.682  39.934  41.011  1.00  0.00     0.159 C 
BRANCH  96  97
ATOM     97  CB  ILE     9      59.395  41.342  40.433  1.00  0.00     0.029 C 
ATOM     98  CG2 ILE     9      57.907  41.698  40.586  1.00  0.00     0.002 C 
BRANCH  97  99
ATOM     99  CG1 ILE     9      60.271  42.404  41.129  1.00  0.00     0.002 C 
ATOM    100  CD  ILE     9      59.856  43.856  40.860  1.00  0.00     0.000 C 
ENDBRANCH  97  99
ENDBRANCH  96  97
BRANCH  96 101
ATOM    101  C   ILE     9      61.172  39.537  40.949  1.00  0.00     0.251 C 
ATOM    102  N   LYS    10      61.573  39.093  39.755  1.00  0.00    -0.338 N 
ATOM    103  H   LYS    10      60.890  38.901  39.049  1.00 99.99     0.164 HD
ATOM    104  O   ILE     9      61.845  39.453  41.975  1.00  0.00    -0.271 OA
BRANCH 102 105
ATOM    105  CA  LYS    10      62.966  38.801  39.338  1.00  0.00     0.159 C 
BRANCH 105 106
ATOM    106  C   LYS    10      63.690  39.924  38.547  1.00  0.00     0.251 C 
ATOM    107  O   LYS    10      64.560  40.630  39.052  1.00  0.00    -0.271 OA
ATOM    108  N   ILE    11      63.241  40.155  37.311  1.00  0.00    -0.338 N 
ATOM    109  H   ILE    11      62.484  39.637  36.923  1.00 99.99     0.164 HD
BRANCH 108 110
ATOM    110  CA  ILE    11      63.830  41.187  36.425  1.00  0.00     0.159 C 
BRANCH 110 111
ATOM    111  C   ILE    11      65.366  41.112  36.316  1.00  0.00     0.251 C 
ATOM    112  N   LYS    12      66.044  42.055  36.976  1.00  0.00    -0.338 N 
ATOM    113  H   LYS    12      65.581  42.850  37.365  1.00 99.99     0.164 HD
ATOM    114  O   ILE    11      65.909  40.215  35.673  1.00  0.00    -0.271 OA
BRANCH 112 115
ATOM    115  CA  LYS    12      67.520  42.062  37.090  1.00  0.00     0.159 C 
BRANCH 115 116
ATOM    116  C   LYS    12      68.031  41.113  38.194  1.00  0.00     0.251 C 
ATOM    117  O   LYS    12      68.756  40.149  37.951  1.00  0.00    -0.271 OA
ATOM    118  N   PHE    13      67.627  41.404  39.432  1.00  0.00    -0.337 N 
ATOM    119  H   PHE    13      66.906  42.072  39.606  1.00 99.99     0.164 HD
BRANCH 118 120
ATOM    120  CA  PHE    13      68.090  40.647  40.614  1.00  0.00     0.164 C 
BRANCH 120 121
ATOM    121  CB  PHE    13      68.040  41.515  41.883  1.00  0.00     0.056 C 
BRANCH 121 122
ATOM    122  CG  PHE    13      66.687  41.516  42.599  1.00  0.00    -0.044 A 
ATOM    123  CD1 PHE    13      66.594  41.055  43.908  1.00  0.00     0.008 A 
ATOM    124  CE1 PHE    13      65.368  41.032  44.552  1.00  0.00     0.001 A 
ATOM    125  CZ  PHE    13      64.222  41.468  43.890  1.00  0.00     0.000 A 
ATOM    126  CE2 PHE    13      64.320  41.943  42.585  1.00  0.00     0.001 A 
ATOM    127  CD2 PHE    13      65.546  41.962  41.940  1.00  0.00     0.008 A 
ENDBRANCH 121 122
ENDBRANCH 120 121
BRANCH 120 128
ATOM    128  C   PHE    13      67.353  39.313  40.826  1.00  0.00     0.251 C 
ATOM    129  N   ARG    14      67.876  38.534  41.773  1.00  0.00    -0.338 N 
ATOM    130  H   ARG    14      68.806  38.685  42.096  1.00 99.99     0.164 HD
ATOM    131  O   PHE    13      66.403  38.988  40.120  1.00  0.00    -0.271 OA
BRANCH 129 132
ATOM    132  CA  ARG    14      67.228  37.282  42.214  1.00  0.00     0.159 C 
BRANCH 132 133
ATOM    133  CB  ARG    14      68.246  36.138  42.358  1.00  0.00     0.034 C 
BRANCH 133 134
ATOM    134  CG  ARG    14      69.621  36.485  41.768  1.00  0.00     0.027 C 
BRANCH 134 135
ATOM    135  CD  ARG    14      70.768  36.042  42.685  1.00  0.00     0.116 C 
BRANCH 135 136
ATOM    136  NE  ARG    14      70.494  36.424  44.078  1.00  0.00    -0.212 N 
ATOM    137  CZ  ARG    14      70.670  37.639  44.622  1.00  0.00     0.666 C 
ATOM    138  NH1 ARG    14      71.064  38.683  43.910  1.00  0.00    -0.235 N 
ATOM    139  NH2 ARG    14      70.508  37.807  45.925  1.00  0.00    -0.235 N 
ATOM    140 2HH1 ARG    14      71.206  38.584  42.921  1.00 99.99     0.174 HD
ATOM    141 1HH1 ARG    14      71.190  39.575  44.338  1.00 99.99     0.174 HD
ATOM    142 2HH2 ARG    14      70.253  37.041  46.509  1.00 99.99     0.174 HD
ATOM    143 1HH2 ARG    14      70.648  38.714  46.319  1.00 99.99     0.174 HD
ATOM    144  HE  ARG    14      70.144  35.694  44.656  1.00 99.99     0.178 HD
ENDBRANCH 135 136
ENDBRANCH 134 135
ENDBRANCH 133 134
ENDBRANCH 132 133
BRANCH 132 145
ATOM    145  C   ARG    14      66.340  37.383  43.468  1.00  0.00     0.251 C 
ATOM    146  N   CYS    15      66.908  37.102  44.642  1.00  0.00    -0.337 N 
ATOM    147  H   CYS    15      67.886  36.941  44.735  1.00 99.99     0.164 HD
ATOM    148  O   ARG    14      65.172  37.747  43.369  1.00  0.00    -0.271 OA
BRANCH 146 149
ATOM    149  CA  CYS    15      66.166  37.108  45.921  1.00  0.00     0.170 C 
BRANCH 149 150
ATOM    150  C   CYS    15      66.826  37.939  47.035  1.00  0.00     0.252 C 
ATOM    151  N   LYS    16      65.971  38.693  47.727  1.00  0.00    -0.337 N 
ATOM    152  H   LYS    16      65.009  38.754  47.476  1.00 99.99     0.164 HD
ATOM    153  O   CYS    15      67.981  37.723  47.393  1.00  0.00    -0.271 OA
BRANCH 151 154
ATOM    154  CA  LYS    16      66.371  39.551  48.863  1.00  0.00     0.159 C 
BRANCH 154 155
ATOM    155  C   LYS    16      66.108  38.906  50.237  1.00  0.00     0.251 C 
ATOM    156  N   SER    17      65.492  39.691  51.122  1.00  0.00    -0.336 N 
ATOM    157  H   SER    17      65.233  40.629  50.886  1.00 99.99     0.164 HD
ATOM    158  O   LYS    16      66.502  37.771  50.519  1.00  0.00    -0.271 OA
BRANCH 156 159
ATOM    159  CA  SER    17      65.089  39.247  52.470  1.00  0.00     0.189 C 
BRANCH 159 160
ATOM    160  C   SER    17      66.308  38.933  53.351  1.00  0.00     0.253 C 
ATOM    161  O   SER    17      66.552  37.767  53.641  1.00  0.00    -0.270 OA
ATOM    162  N   LEU    18      66.939  39.971  53.909  1.00  0.00    -0.337 N 
ATOM    163  H   LEU    18      66.603  40.900  53.742  1.00 99.99     0.164 HD
BRANCH 162 164
ATOM    164  CA  LEU    18      68.140  39.872  54.756  1.00  0.00     0.159 C 
BRANCH 164 165
ATOM    165  C   LEU    18      67.937  40.376  56.190  1.00  0.00     0.251 C 
ATOM    166  O   LEU    18      67.878  39.610  57.147  1.00  0.00    -0.271 OA
ATOM    167  N   LYS    19      67.942  41.704  56.270  1.00  0.00    -0.338 N 
ATOM    168  H   LYS    19      68.106  42.269  55.465  1.00 99.99     0.164 HD
BRANCH 167 169
ATOM    169  CA  LYS    19      67.670  42.477  57.491  1.00  0.00     0.159 C 
BRANCH 169 170
ATOM    170  C   LYS    19      66.157  42.574  57.688  1.00  0.00     0.251 C 
ATOM    171  N   PHE    20      65.735  42.240  58.899  1.00  0.00    -0.336 N 
ATOM    172  H   PHE    20      66.363  41.887  59.593  1.00 99.99     0.164 HD
ATOM    173  O   LYS    19      65.413  42.890  56.757  1.00  0.00    -0.271 OA
BRANCH 171 174
ATOM    174  CA  PHE    20      64.333  42.389  59.332  1.00  0.00     0.172 C 
BRANCH 174 175
ATOM    175  CB  PHE    20      63.816  41.079  59.939  1.00  0.00     0.058 C 
BRANCH 175 176
ATOM    176  CG  PHE    20      62.815  40.346  59.032  1.00  0.00    -0.044 A 
ATOM    177  CD2 PHE    20      61.473  40.275  59.379  1.00  0.00     0.008 A 
ATOM    178  CE2 PHE    20      60.578  39.575  58.578  1.00  0.00     0.001 A 
ATOM    179  CZ  PHE    20      61.024  38.939  57.423  1.00  0.00     0.000 A 
ATOM    180  CE1 PHE    20      62.368  39.026  57.065  1.00  0.00     0.001 A 
ATOM    181  CD1 PHE    20      63.258  39.728  57.870  1.00  0.00     0.008 A 
ENDBRANCH 175 176
ENDBRANCH 174 175
BRANCH 174 182
ATOM    182  C   PHE    20      64.245  43.530  60.357  1.00  0.00     0.207 C 
ATOM    183  OXT PHE    20      65.321  44.049  60.718  1.00 99.99    -0.646 OA
ATOM    184  O   PHE    20      63.143  44.081  60.493  1.00 99.99    -0.646 OA
ENDBRANCH 174 182
ENDBRANCH 171 174
ENDBRANCH 169 170
BRANCH 169 185
ATOM    185  CB  LYS    19      68.237  43.898  57.372  1.00  0.00     0.032 C 
BRANCH 185 186
ATOM    186  CG  LYS    19      68.920  44.170  56.029  1.00  0.00     0.004 C 
BRANCH 186 187
ATOM    187  CD  LYS    19      68.947  45.665  55.686  1.00  0.00     0.032 C 
BRANCH 187 188
ATOM    188  CE  LYS    19      70.382  46.184  55.576  1.00  0.00     0.206 C 
BRANCH 188 189
ATOM    189  NZ  LYS    19      71.317  45.259  56.234  1.00  0.00    -0.064 N 
ATOM    190  HZ3 LYS    19      71.158  45.258  57.224  1.00 99.99     0.275 HD
ATOM    191  HZ1 LYS    19      71.203  44.332  55.881  1.00 99.99     0.275 HD
ATOM    192  HZ2 LYS    19      72.258  45.569  56.082  1.00 99.99     0.275 HD
ENDBRANCH 188 189
ENDBRANCH 187 188
ENDBRANCH 186 187
ENDBRANCH 185 186
ENDBRANCH 169 185
ENDBRANCH 167 169
ENDBRANCH 164 165
BRANCH 164 193
ATOM    193  CB  LEU    18      69.301  40.640  54.110  1.00  0.00     0.032 C 
BRANCH 193 194
ATOM    194  CG  LEU    18      70.466  39.738  53.684  1.00  0.00     0.002 C 
ATOM    195  CD1 LEU    18      70.853  38.822  54.846  1.00  0.00     0.000 C 
ATOM    196  CD2 LEU    18      70.097  38.885  52.464  1.00  0.00     0.000 C 
ENDBRANCH 193 194
ENDBRANCH 164 193
ENDBRANCH 162 164
ENDBRANCH 159 160
BRANCH 159 197
ATOM    197  CB  SER    17      64.073  38.092  52.408  1.00  0.00     0.169 C 
BRANCH 197 198
ATOM    198  OG  SER    17      63.252  38.026  53.581  1.00  0.00    -0.380 OA
ATOM    199  HG  SER    17      62.303  38.091  53.267  1.00 99.99     0.211 HD
ENDBRANCH 197 198
ENDBRANCH 159 197
ENDBRANCH 156 159
ENDBRANCH 154 155
BRANCH 154 200
ATOM    200  CB  LYS    16      65.680  40.920  48.748  1.00  0.00     0.032 C 
BRANCH 200 201
ATOM    201  CG  LYS    16      66.650  42.103  48.795  1.00  0.00     0.004 C 
BRANCH 201 202
ATOM    202  CD  LYS    16      66.754  42.722  47.400  1.00  0.00     0.032 C 
BRANCH 202 203
ATOM    203  CE  LYS    16      68.200  42.795  46.909  1.00  0.00     0.206 C 
BRANCH 203 204
ATOM    204  NZ  LYS    16      68.750  41.444  46.725  1.00  0.00    -0.064 N 
ATOM    205  HZ1 LYS    16      69.743  41.467  46.846  1.00 99.99     0.275 HD
ATOM    206  HZ2 LYS    16      68.348  40.824  47.401  1.00 99.99     0.275 HD
ATOM    207  HZ3 LYS    16      68.535  41.118  45.805  1.00 99.99     0.275 HD
ENDBRANCH 203 204
ENDBRANCH 202 203
ENDBRANCH 201 202
ENDBRANCH 200 201
ENDBRANCH 154 200
ENDBRANCH 151 154
ENDBRANCH 149 150
BRANCH 149 208
ATOM    208  CB  CYS    15      65.935  35.664  46.384  1.00  0.00     0.085 C 
BRANCH 208 209
ATOM    209  SG  CYS    15      65.115  35.512  48.016  1.00  0.00    -0.165 SA
ATOM    210  HG  CYS    15      65.609  34.312  48.302  1.00 99.99     0.102 HD
ENDBRANCH 208 209
ENDBRANCH 149 208
ENDBRANCH 146 149
ENDBRANCH 132 145
ENDBRANCH 129 132
ENDBRANCH 120 128
ENDBRANCH 118 120
ENDBRANCH 115 116
BRANCH 115 211
ATOM    211  CB  LYS    12      68.048  43.490  37.325  1.00  0.00     0.032 C 
BRANCH 211 212
ATOM    212  CG  LYS    12      67.339  44.567  36.500  1.00  0.00     0.004 C 
BRANCH 212 213
ATOM    213  CD  LYS    12      68.139  45.871  36.563  1.00  0.00     0.032 C 
BRANCH 213 214
ATOM    214  CE  LYS    12      67.359  46.981  37.272  1.00  0.00     0.206 C 
BRANCH 214 215
ATOM    215  NZ  LYS    12      68.233  48.122  37.585  1.00  0.00    -0.064 N 
ATOM    216  HZ3 LYS    12      68.427  48.634  36.748  1.00 99.99     0.275 HD
ATOM    217  HZ2 LYS    12      69.089  47.790  37.979  1.00 99.99     0.275 HD
ATOM    218  HZ1 LYS    12      67.775  48.721  38.242  1.00 99.99     0.275 HD
ENDBRANCH 214 215
ENDBRANCH 213 214
ENDBRANCH 212 213
ENDBRANCH 211 212
ENDBRANCH 115 211
ENDBRANCH 112 115
ENDBRANCH 110 111
BRANCH 110 219
ATOM    219  CB  ILE    11      63.371  42.611  36.810  1.00  0.00     0.029 C 
ATOM    220  CG2 ILE    11      63.342  43.492  35.552  1.00  0.00     0.002 C 
BRANCH 219 221
ATOM    221  CG1 ILE    11      62.035  42.629  37.574  1.00  0.00     0.002 C 
ATOM    222  CD  ILE    11      61.190  43.880  37.291  1.00  0.00     0.000 C 
ENDBRANCH 219 221
ENDBRANCH 110 219
ENDBRANCH 108 110
ENDBRANCH 105 106
BRANCH 105 223
ATOM    223  CB  LYS    10      62.970  37.442  38.611  1.00  0.00     0.032 C 
BRANCH 223 224
ATOM    224  CG  LYS    10      63.888  36.408  39.271  1.00  0.00     0.004 C 
BRANCH 224 225
ATOM    225  CD  LYS    10      63.465  36.128  40.713  1.00  0.00     0.032 C 
BRANCH 225 226
ATOM    226  CE  LYS    10      62.084  35.468  40.746  1.00  0.00     0.206 C 
BRANCH 226 227
ATOM    227  NZ  LYS    10      61.099  36.334  41.408  1.00  0.00    -0.064 N 
ATOM    228  HZ2 LYS    10      60.602  35.805  42.095  1.00 99.99     0.275 HD
ATOM    229  HZ3 LYS    10      61.569  37.098  41.851  1.00 99.99     0.275 HD
ATOM    230  HZ1 LYS    10      60.457  36.687  40.728  1.00 99.99     0.275 HD
ENDBRANCH 226 227
ENDBRANCH 225 226
ENDBRANCH 224 225
ENDBRANCH 223 224
ENDBRANCH 105 223
ENDBRANCH 102 105
ENDBRANCH  96 101
ENDBRANCH  94  96
ENDBRANCH  80  92
ENDBRANCH  78  80
ENDBRANCH  72  76
ENDBRANCH  69  72
ENDBRANCH  55  68
ENDBRANCH  52  55
ENDBRANCH  47  51
ENDBRANCH  31  44
ENDBRANCH  29  31
ENDBRANCH  26  27
BRANCH  26 231
ATOM    231  CB  LEU     3      53.577  39.241  50.999  1.00  0.00     0.032 C 
BRANCH 231 232
ATOM    232  CG  LEU     3      52.481  40.015  50.252  1.00  0.00     0.002 C 
ATOM    233  CD2 LEU     3      51.829  39.157  49.162  1.00  0.00     0.000 C 
ATOM    234  CD1 LEU     3      53.074  41.275  49.621  1.00  0.00     0.000 C 
ENDBRANCH 231 232
ENDBRANCH  26 231
ENDBRANCH  24  26
ENDBRANCH  18  22
ENDBRANCH  15  18
ENDBRANCH   5  14
ENDBRANCH   1   5
TORSDOF 98
ENDMDL
MODEL 7
REMARK VINA RESULT:      -2.4      2.914      7.508
REMARK WARNING: 32 MAX_TORS EXCEEDED!!!
REMARK  98 active torsions:
REMARK  status: ('A' for Active; 'I' for Inactive)
REMARK    1  A    between atoms: N_1  and  CA_2 
REMARK    2  A    between atoms: CA_2  and  CB_5 
REMARK    3  A    between atoms: CA_2  and  C_3 
REMARK       I    between atoms: C_3  and  N_16 
REMARK    4  A    between atoms: CB_5  and  CG_6 
REMARK    5  A    between atoms: CG_6  and  CD_7 
REMARK    6  A    between atoms: CD_7  and  CE_8 
REMARK    7  A    between atoms: CE_8  and  NZ_9 
REMARK    8  A    between atoms: N_16  and  CA_17 
REMARK    9  A    between atoms: CA_17  and  CB_20 
REMARK   10  A    between atoms: CA_17  and  C_18 
REMARK       I    between atoms: C_18  and  N_24 
REMARK   11  A    between atoms: CB_20  and  OG_21 
REMARK   12  A    between atoms: N_24  and  CA_25 
REMARK   13  A    between atoms: CA_25  and  C_26 
REMARK   14  A    between atoms: CA_25  and  CB_28 
REMARK       I    between atoms: C_26  and  N_33 
REMARK   15  A    between atoms: CB_28  and  CG_29 
REMARK   16  A    between atoms: N_33  and  CA_34 
REMARK   17  A    between atoms: CA_34  and  CB_37 
REMARK   18  A    between atoms: CA_34  and  C_35 
REMARK       I    between atoms: C_35  and  N_50 
REMARK   19  A    between atoms: CB_37  and  CG_38 
REMARK   20  A    between atoms: CG_38  and  CD_39 
REMARK   21  A    between atoms: CD_39  and  NE_40 
REMARK       I    between atoms: NE_40  and  CZ_41 
REMARK       I    between atoms: CZ_41  and  NH1_42 
REMARK       I    between atoms: CZ_41  and  NH2_43 
REMARK   22  A    between atoms: CA_51  and  C_52 
REMARK       I    between atoms: C_52  and  N_57 
REMARK   23  A    between atoms: N_57  and  CA_58 
REMARK   24  A    between atoms: CA_58  and  CB_61 
REMARK   25  A    between atoms: CA_58  and  C_59 
REMARK       I    between atoms: C_59  and  N_74 
REMARK   26  A    between atoms: CB_61  and  CG_62 
REMARK   27  A    between atoms: CG_62  and  CD_63 
REMARK   28  A    between atoms: CD_63  and  NE_64 
REMARK       I    between atoms: NE_64  and  CZ_65 
REMARK       I    between atoms: CZ_65  and  NH2_67 
REMARK       I    between atoms: CZ_65  and  NH1_66 
REMARK   29  A    between atoms: N_74  and  CA_75 
REMARK   30  A    between atoms: CA_75  and  CB_78 
REMARK   31  A    between atoms: CA_75  and  C_76 
REMARK       I    between atoms: C_76  and  N_82 
REMARK   32  A    between atoms: CB_78  and  SG_79 
REMARK   33  A    between atoms: N_82  and  CA_83 
REMARK   34  A    between atoms: CA_83  and  CB_86 
REMARK   35  A    between atoms: CA_83  and  C_84 
REMARK       I    between atoms: C_84  and  N_98 
REMARK   36  A    between atoms: CB_86  and  CG_87 
REMARK   37  A    between atoms: N_98  and  CA_99 
REMARK   38  A    between atoms: CA_99  and  CB_102 
REMARK   39  A    between atoms: CA_99  and  C_100 
REMARK       I    between atoms: C_100  and  N_107 
REMARK   40  A    between atoms: CB_102  and  CG1_103 
REMARK   41  A    between atoms: N_107  and  CA_108 
REMARK   42  A    between atoms: CA_108  and  C_109 
REMARK   43  A    between atoms: CA_108  and  CB_111 
REMARK       I    between atoms: C_109  and  N_120 
REMARK   44  A    between atoms: CB_111  and  CG_112 
REMARK   45  A    between atoms: CG_112  and  CD_113 
REMARK   46  A    between atoms: CD_113  and  CE_114 
REMARK   47  A    between atoms: CE_114  and  NZ_115 
REMARK   48  A    between atoms: N_120  and  CA_121 
REMARK   49  A    between atoms: CA_121  and  C_122 
REMARK   50  A    between atoms: CA_121  and  CB_124 
REMARK       I    between atoms: C_122  and  N_129 
REMARK   51  A    between atoms: CB_124  and  CG1_125 
REMARK   52  A    between atoms: N_129  and  CA_130 
REMARK   53  A    between atoms: CA_130  and  C_131 
REMARK   54  A    between atoms: CA_130  and  CB_133 
REMARK       I    between atoms: C_131  and  N_142 
REMARK   55  A    between atoms: CB_133  and  CG_134 
REMARK   56  A    between atoms: CG_134  and  CD_135 
REMARK   57  A    between atoms: CD_135  and  CE_136 
REMARK   58  A    between atoms: CE_136  and  NZ_137 
REMARK   59  A    between atoms: N_142  and  CA_143 
REMARK   60  A    between atoms: CA_143  and  CB_146 
REMARK   61  A    between atoms: CA_143  and  C_144 
REMARK       I    between atoms: C_144  and  N_154 
REMARK   62  A    between atoms: CB_146  and  CG_147 
REMARK   63  A    between atoms: N_154  and  CA_155 
REMARK   64  A    between atoms: CA_155  and  CB_158 
REMARK   65  A    between atoms: CA_155  and  C_156 
REMARK       I    between atoms: C_156  and  N_171 
REMARK   66  A    between atoms: CB_158  and  CG_159 
REMARK   67  A    between atoms: CG_159  and  CD_160 
REMARK   68  A    between atoms: CD_160  and  NE_161 
REMARK       I    between atoms: NE_161  and  CZ_162 
REMARK       I    between atoms: CZ_162  and  NH1_163 
REMARK   69  A    between atoms: N_171  and  CA_172 
REMARK   70  A    between atoms: CA_172  and  C_173 
REMARK   71  A    between atoms: CA_172  and  CB_175 
REMARK       I    between atoms: C_173  and  N_179 
REMARK   72  A    between atoms: CB_175  and  SG_176 
REMARK   73  A    between atoms: N_179  and  CA_180 
REMARK   74  A    between atoms: CA_180  and  C_181 
REMARK   75  A    between atoms: CA_180  and  CB_183 
REMARK       I    between atoms: C_181  and  N_192 
REMARK   76  A    between atoms: CB_183  and  CG_184 
REMARK   77  A    between atoms: CG_184  and  CD_185 
REMARK   78  A    between atoms: CD_185  and  CE_186 
REMARK   79  A    between atoms: CE_186  and  NZ_187 
REMARK   80  A    between atoms: N_192  and  CA_193 
REMARK   81  A    between atoms: CA_193  and  C_194 
REMARK   82  A    between atoms: CA_193  and  CB_196 
REMARK       I    between atoms: C_194  and  N_200 
REMARK   83  A    between atoms: CB_196  and  OG_197 
REMARK   84  A    between atoms: N_200  and  CA_201 
REMARK   85  A    between atoms: CA_201  and  C_202 
REMARK   86  A    between atoms: CA_201  and  CB_204 
REMARK       I    between atoms: C_202  and  N_209 
REMARK   87  A    between atoms: CB_204  and  CG_205 
REMARK   88  A    between atoms: N_209  and  CA_210 
REMARK   89  A    between atoms: CA_210  and  C_211 
REMARK   90  A    between atoms: CA_210  and  CB_213 
REMARK       I    between atoms: C_211  and  N_222 
REMARK   91  A    between atoms: CB_213  and  CG_214 
REMARK   92  A    between atoms: CG_214  and  CD_215 
REMARK   93  A    between atoms: CD_215  and  CE_216 
REMARK   94  A    between atoms: CE_216  and  NZ_217 
REMARK   95  A    between atoms: N_222  and  CA_223 
REMARK   96  A    between atoms: CA_223  and  CB_226 
REMARK   97  A    between atoms: CA_223  and  C_224 
REMARK   98  A    between atoms: CB_226  and  CG_227 
ROOT
ATOM      1  N   LYS     1      58.028  40.608  56.355  1.00  0.00    -0.058 N 
ATOM      2  H1  LYS     1      57.702  40.613  57.302  1.00 99.99     0.276 HD
ATOM      3  H2  LYS     1      58.964  40.313  56.356  1.00 99.99     0.276 HD
ATOM      4  H3  LYS     1      58.034  41.530  56.009  1.00 99.99     0.276 HD
ENDROOT
BRANCH   1   5
ATOM      5  CA  LYS     1      57.145  39.692  55.591  1.00  0.00     0.255 C 
BRANCH   5   6
ATOM      6  CB  LYS     1      55.694  39.755  56.110  1.00  0.00     0.040 C 
BRANCH   6   7
ATOM      7  CG  LYS     1      55.016  38.382  56.278  1.00  0.00     0.004 C 
BRANCH   7   8
ATOM      8  CD  LYS     1      56.027  37.230  56.234  1.00  0.00     0.032 C 
BRANCH   8   9
ATOM      9  CE  LYS     1      55.338  35.861  56.193  1.00  0.00     0.206 C 
BRANCH   9  10
ATOM     10  NZ  LYS     1      53.920  35.966  55.806  1.00  0.00    -0.064 N 
ATOM     11  HZ1 LYS     1      53.523  36.796  56.201  1.00 99.99     0.275 HD
ATOM     12  HZ2 LYS     1      53.843  36.009  54.810  1.00 99.99     0.275 HD
ATOM     13  HZ3 LYS     1      53.416  35.171  56.144  1.00 99.99     0.275 HD
ENDBRANCH   9  10
ENDBRANCH   8   9
ENDBRANCH   7   8
ENDBRANCH   6   7
ENDBRANCH   5   6
BRANCH   5  14
ATOM     14  C   LYS     1      57.192  40.144  54.121  1.00  0.00     0.259 C 
ATOM     15  N   SER     2      58.256  40.852  53.773  1.00  0.00    -0.336 N 
ATOM     16  H   SER     2      59.004  41.062  54.401  1.00 99.99     0.164 HD
ATOM     17  O   LYS     1      56.216  39.987  53.385  1.00  0.00    -0.271 OA
BRANCH  15  18
ATOM     18  CA  SER     2      58.440  41.397  52.415  1.00  0.00     0.189 C 
BRANCH  18  19
ATOM     19  CB  SER     2      57.946  42.856  52.375  1.00  0.00     0.169 C 
BRANCH  19  20
ATOM     20  OG  SER     2      56.557  42.950  51.998  1.00  0.00    -0.380 OA
ATOM     21  HG  SER     2      56.038  42.110  52.169  1.00 99.99     0.211 HD
ENDBRANCH  19  20
ENDBRANCH  18  19
BRANCH  18  22
ATOM     22  C   SER     2      59.945  41.313  52.104  1.00  0.00     0.253 C 
ATOM     23  O   SER     2      60.390  40.380  51.436  1.00  0.00    -0.270 OA
ATOM     24  N   LEU     3      60.689  42.387  52.369  1.00  0.00    -0.337 N 
ATOM     25  H   LEU     3      60.309  43.301  52.477  1.00 99.99     0.164 HD
BRANCH  24  26
ATOM     26  CA  LEU     3      62.162  42.289  52.292  1.00  0.00     0.159 C 
BRANCH  26  27
ATOM     27  C   LEU     3      62.653  42.311  50.829  1.00  0.00     0.251 C 
ATOM     28  O   LEU     3      63.292  41.372  50.350  1.00  0.00    -0.271 OA
ATOM     29  N   ARG     4      62.265  43.353  50.103  1.00  0.00    -0.338 N 
ATOM     30  H   ARG     4      61.639  44.037  50.474  1.00 99.99     0.164 HD
BRANCH  29  31
ATOM     31  CA  ARG     4      62.735  43.605  48.729  1.00  0.00     0.160 C 
BRANCH  31  32
ATOM     32  CB  ARG     4      64.147  43.033  48.547  1.00  0.00     0.034 C 
BRANCH  32  33
ATOM     33  CG  ARG     4      65.232  44.038  48.953  1.00  0.00     0.027 C 
BRANCH  33  34
ATOM     34  CD  ARG     4      65.479  45.096  47.873  1.00  0.00     0.116 C 
BRANCH  34  35
ATOM     35  NE  ARG     4      66.408  46.137  48.347  1.00  0.00    -0.212 N 
ATOM     36  CZ  ARG     4      66.318  46.828  49.487  1.00  0.00     0.666 C 
ATOM     37  NH1 ARG     4      65.339  46.613  50.365  1.00  0.00    -0.235 N 
ATOM     38  NH2 ARG     4      67.178  47.797  49.748  1.00  0.00    -0.235 N 
ATOM     39 2HH1 ARG     4      64.660  45.910  50.169  1.00 99.99     0.174 HD
ATOM     40 1HH1 ARG     4      65.297  47.140  51.210  1.00 99.99     0.174 HD
ATOM     41 1HH2 ARG     4      67.102  48.310  50.601  1.00 99.99     0.174 HD
ATOM     42 2HH2 ARG     4      67.898  48.028  49.095  1.00 99.99     0.174 HD
ATOM     43  HE  ARG     4      67.193  46.306  47.754  1.00 99.99     0.178 HD
ENDBRANCH  34  35
ENDBRANCH  33  34
ENDBRANCH  32  33
ENDBRANCH  31  32
BRANCH  31  44
ATOM     44  C   ARG     4      61.764  42.922  47.747  1.00  0.00     0.254 C 
ATOM     45  N   PRO     5      62.111  42.791  46.452  1.00  0.00    -0.312 N 
ATOM     46  CD  PRO     5      63.398  43.226  45.870  1.00  0.00     0.105 C 
ATOM     47  CA  PRO     5      61.241  42.219  45.391  1.00  0.00     0.163 C 
ATOM     48  CG  PRO     5      63.416  42.623  44.465  1.00  0.00     0.027 C 
ATOM     49  CB  PRO     5      61.938  42.612  44.082  1.00  0.00     0.034 C 
ATOM     50  O   ARG     4      60.735  42.451  48.234  1.00  0.00    -0.270 OA
BRANCH  47  51
ATOM     51  C   PRO     5      60.895  40.715  45.479  1.00  0.00     0.251 C 
ATOM     52  N   ARG     6      61.937  39.950  45.792  1.00  0.00    -0.338 N 
ATOM     53  H   ARG     6      62.842  40.373  45.766  1.00 99.99     0.164 HD
ATOM     54  O   PRO     5      59.820  40.261  45.099  1.00  0.00    -0.271 OA
BRANCH  52  55
ATOM     55  CA  ARG     6      61.971  38.530  46.192  1.00  0.00     0.159 C 
BRANCH  55  56
ATOM     56  CB  ARG     6      63.386  38.118  46.621  1.00  0.00     0.034 C 
BRANCH  56  57
ATOM     57  CG  ARG     6      63.732  36.676  46.239  1.00  0.00     0.027 C 
BRANCH  57  58
ATOM     58  CD  ARG     6      62.903  36.192  45.043  1.00  0.00     0.116 C 
BRANCH  58  59
ATOM     59  NE  ARG     6      63.733  36.104  43.830  1.00  0.00    -0.212 N 
ATOM     60  CZ  ARG     6      63.910  37.067  42.910  1.00  0.00     0.666 C 
ATOM     61  NH2 ARG     6      64.782  36.891  41.931  1.00  0.00    -0.235 N 
ATOM     62  NH1 ARG     6      63.290  38.236  42.988  1.00  0.00    -0.235 N 
ATOM     63 2HH2 ARG     6      65.321  36.055  41.866  1.00 99.99     0.174 HD
ATOM     64 1HH2 ARG     6      64.905  37.614  41.251  1.00 99.99     0.174 HD
ATOM     65 1HH1 ARG     6      63.439  38.933  42.288  1.00 99.99     0.174 HD
ATOM     66 2HH1 ARG     6      62.678  38.413  43.756  1.00 99.99     0.174 HD
ATOM     67  HE  ARG     6      64.203  35.237  43.700  1.00 99.99     0.178 HD
ENDBRANCH  58  59
ENDBRANCH  57  58
ENDBRANCH  56  57
ENDBRANCH  55  56
BRANCH  55  68
ATOM     68  C   ARG     6      61.000  38.230  47.354  1.00  0.00     0.251 C 
ATOM     69  N   CYS     7      60.110  37.242  47.173  1.00  0.00    -0.337 N 
ATOM     70  H   CYS     7      60.124  36.658  46.359  1.00 99.99     0.164 HD
ATOM     71  O   ARG     6      61.001  38.936  48.359  1.00  0.00    -0.271 OA
BRANCH  69  72
ATOM     72  CA  CYS     7      59.063  36.869  48.142  1.00  0.00     0.170 C 
BRANCH  72  73
ATOM     73  CB  CYS     7      59.417  37.435  49.531  1.00  0.00     0.085 C 
BRANCH  73  74
ATOM     74  SG  CYS     7      60.262  36.330  50.722  1.00  0.00    -0.165 SA
ATOM     75  HG  CYS     7      59.195  36.055  51.463  1.00 99.99     0.102 HD
ENDBRANCH  73  74
ENDBRANCH  72  73
BRANCH  72  76
ATOM     76  C   CYS     7      57.693  37.447  47.711  1.00  0.00     0.252 C 
ATOM     77  O   CYS     7      56.706  37.366  48.445  1.00  0.00    -0.271 OA
ATOM     78  N   TRP     8      57.637  38.054  46.527  1.00  0.00    -0.337 N 
ATOM     79  H   TRP     8      58.446  38.237  45.970  1.00 99.99     0.164 HD
BRANCH  78  80
ATOM     80  CA  TRP     8      56.364  38.602  46.003  1.00  0.00     0.164 C 
BRANCH  80  81
ATOM     81  CB  TRP     8      56.392  40.133  45.927  1.00  0.00     0.059 C 
BRANCH  81  82
ATOM     82  CG  TRP     8      56.102  40.819  47.268  1.00  0.00    -0.016 A 
ATOM     83  CD1 TRP     8      56.858  41.693  47.920  1.00  0.00     0.097 A 
ATOM     84  NE1 TRP     8      56.234  42.086  49.033  1.00  0.00    -0.365 N 
ATOM     85  HE1 TRP     8      56.640  42.663  49.738  1.00 99.99     0.165 HD
ATOM     86  CE2 TRP     8      55.056  41.466  49.115  1.00  0.00     0.042 A 
ATOM     87  CZ2 TRP     8      54.034  41.497  50.052  1.00  0.00     0.030 A 
ATOM     88  CD2 TRP     8      54.950  40.634  48.014  1.00  0.00    -0.001 A 
ATOM     89  CH2 TRP     8      52.918  40.676  49.890  1.00  0.00     0.002 A 
ATOM     90  CZ3 TRP     8      52.833  39.825  48.799  1.00  0.00     0.001 A 
ATOM     91  CE3 TRP     8      53.851  39.806  47.854  1.00  0.00     0.014 A 
ENDBRANCH  81  82
ENDBRANCH  80  81
BRANCH  80  92
ATOM     92  C   TRP     8      55.938  37.977  44.672  1.00  0.00     0.251 C 
ATOM     93  O   TRP     8      54.762  37.851  44.331  1.00  0.00    -0.271 OA
ATOM     94  N   ILE     9      56.961  37.494  43.969  1.00  0.00    -0.338 N 
ATOM     95  H   ILE     9      57.888  37.493  44.345  1.00 99.99     0.164 HD
BRANCH  94  96
ATOM     96  CA  ILE     9      56.837  36.945  42.605  1.00  0.00     0.159 C 
BRANCH  96  97
ATOM     97  CB  ILE     9      55.826  35.772  42.608  1.00  0.00     0.029 C 
ATOM     98  CG2 ILE     9      55.294  35.512  41.189  1.00  0.00     0.002 C 
BRANCH  97  99
ATOM     99  CG1 ILE     9      56.478  34.495  43.175  1.00  0.00     0.002 C 
ATOM    100  CD  ILE     9      56.548  34.434  44.707  1.00  0.00     0.000 C 
ENDBRANCH  97  99
ENDBRANCH  96  97
BRANCH  96 101
ATOM    101  C   ILE     9      56.492  38.049  41.583  1.00  0.00     0.251 C 
ATOM    102  N   LYS    10      57.543  38.759  41.165  1.00  0.00    -0.338 N 
ATOM    103  H   LYS    10      58.424  38.650  41.629  1.00 99.99     0.164 HD
ATOM    104  O   ILE     9      55.322  38.356  41.356  1.00  0.00    -0.271 OA
BRANCH 102 105
ATOM    105  CA  LYS    10      57.561  39.760  40.072  1.00  0.00     0.159 C 
BRANCH 105 106
ATOM    106  C   LYS    10      58.591  39.512  38.936  1.00  0.00     0.251 C 
ATOM    107  O   LYS    10      59.672  40.095  38.888  1.00  0.00    -0.271 OA
ATOM    108  N   ILE    11      58.195  38.704  37.951  1.00  0.00    -0.338 N 
ATOM    109  H   ILE    11      57.290  38.288  37.945  1.00 99.99     0.164 HD
BRANCH 108 110
ATOM    110  CA  ILE    11      59.062  38.361  36.799  1.00  0.00     0.159 C 
BRANCH 110 111
ATOM    111  C   ILE    11      59.066  39.425  35.683  1.00  0.00     0.251 C 
ATOM    112  N   LYS    12      59.895  40.456  35.864  1.00  0.00    -0.338 N 
ATOM    113  H   LYS    12      60.346  40.611  36.741  1.00 99.99     0.164 HD
ATOM    114  O   ILE    11      58.357  39.295  34.686  1.00  0.00    -0.271 OA
BRANCH 112 115
ATOM    115  CA  LYS    12      60.125  41.502  34.840  1.00  0.00     0.159 C 
BRANCH 115 116
ATOM    116  C   LYS    12      61.519  41.391  34.189  1.00  0.00     0.251 C 
ATOM    117  O   LYS    12      61.684  40.944  33.055  1.00  0.00    -0.271 OA
ATOM    118  N   PHE    13      62.538  41.810  34.942  1.00  0.00    -0.337 N 
ATOM    119  H   PHE    13      62.426  42.006  35.914  1.00 99.99     0.164 HD
BRANCH 118 120
ATOM    120  CA  PHE    13      63.928  41.851  34.441  1.00  0.00     0.164 C 
BRANCH 120 121
ATOM    121  CB  PHE    13      64.187  43.130  33.627  1.00  0.00     0.056 C 
BRANCH 121 122
ATOM    122  CG  PHE    13      63.282  44.309  33.991  1.00  0.00    -0.044 A 
ATOM    123  CD1 PHE    13      62.429  44.850  33.034  1.00  0.00     0.008 A 
ATOM    124  CE1 PHE    13      61.625  45.933  33.350  1.00  0.00     0.001 A 
ATOM    125  CZ  PHE    13      61.670  46.486  34.629  1.00  0.00     0.000 A 
ATOM    126  CE2 PHE    13      62.513  45.933  35.589  1.00  0.00     0.001 A 
ATOM    127  CD2 PHE    13      63.319  44.854  35.270  1.00  0.00     0.008 A 
ENDBRANCH 121 122
ENDBRANCH 120 121
BRANCH 120 128
ATOM    128  C   PHE    13      64.991  41.669  35.539  1.00  0.00     0.251 C 
ATOM    129  N   ARG    14      66.250  41.757  35.113  1.00  0.00    -0.338 N 
ATOM    130  H   ARG    14      66.464  41.663  34.145  1.00 99.99     0.164 HD
ATOM    131  O   PHE    13      64.676  41.400  36.694  1.00  0.00    -0.271 OA
BRANCH 129 132
ATOM    132  CA  ARG    14      67.401  41.748  36.040  1.00  0.00     0.159 C 
BRANCH 132 133
ATOM    133  CB  ARG    14      67.366  42.952  36.997  1.00  0.00     0.034 C 
BRANCH 133 134
ATOM    134  CG  ARG    14      67.342  44.299  36.260  1.00  0.00     0.027 C 
BRANCH 134 135
ATOM    135  CD  ARG    14      68.126  45.381  37.014  1.00  0.00     0.116 C 
BRANCH 135 136
ATOM    136  NE  ARG    14      67.247  46.506  37.367  1.00  0.00    -0.212 N 
ATOM    137  CZ  ARG    14      67.634  47.724  37.774  1.00  0.00     0.666 C 
ATOM    138  NH1 ARG    14      68.909  48.078  37.838  1.00  0.00    -0.235 N 
ATOM    139  NH2 ARG    14      66.731  48.599  38.187  1.00  0.00    -0.235 N 
ATOM    140 2HH1 ARG    14      69.617  47.431  37.542  1.00 99.99     0.174 HD
ATOM    141 1HH1 ARG    14      69.171  48.989  38.146  1.00 99.99     0.174 HD
ATOM    142 2HH2 ARG    14      65.762  48.364  38.197  1.00 99.99     0.174 HD
ATOM    143 1HH2 ARG    14      67.032  49.501  38.493  1.00 99.99     0.174 HD
ATOM    144  HE  ARG    14      66.272  46.321  37.289  1.00 99.99     0.178 HD
ENDBRANCH 135 136
ENDBRANCH 134 135
ENDBRANCH 133 134
ENDBRANCH 132 133
BRANCH 132 145
ATOM    145  C   ARG    14      67.635  40.440  36.817  1.00  0.00     0.251 C 
ATOM    146  N   CYS    15      68.114  40.544  38.058  1.00  0.00    -0.337 N 
ATOM    147  H   CYS    15      68.217  41.421  38.516  1.00 99.99     0.164 HD
ATOM    148  O   ARG    14      67.347  39.360  36.309  1.00  0.00    -0.271 OA
BRANCH 146 149
ATOM    149  CA  CYS    15      68.435  39.373  38.902  1.00  0.00     0.170 C 
BRANCH 149 150
ATOM    150  C   CYS    15      67.779  39.394  40.293  1.00  0.00     0.252 C 
ATOM    151  N   LYS    16      67.795  40.590  40.883  1.00  0.00    -0.337 N 
ATOM    152  H   LYS    16      68.265  41.366  40.472  1.00 99.99     0.164 HD
ATOM    153  O   CYS    15      67.096  38.453  40.690  1.00  0.00    -0.271 OA
BRANCH 151 154
ATOM    154  CA  LYS    16      67.196  40.858  42.208  1.00  0.00     0.159 C 
BRANCH 154 155
ATOM    155  C   LYS    16      67.697  39.902  43.308  1.00  0.00     0.251 C 
ATOM    156  N   SER    17      66.784  39.046  43.772  1.00  0.00    -0.336 N 
ATOM    157  H   SER    17      65.849  39.048  43.416  1.00 99.99     0.164 HD
ATOM    158  O   LYS    16      68.838  39.972  43.773  1.00  0.00    -0.271 OA
BRANCH 156 159
ATOM    159  CA  SER    17      67.074  38.005  44.776  1.00  0.00     0.189 C 
BRANCH 159 160
ATOM    160  C   SER    17      67.883  38.566  45.956  1.00  0.00     0.253 C 
ATOM    161  O   SER    17      68.915  38.000  46.298  1.00  0.00    -0.270 OA
ATOM    162  N   LEU    18      67.318  39.545  46.670  1.00  0.00    -0.337 N 
ATOM    163  H   LEU    18      66.405  39.873  46.420  1.00 99.99     0.164 HD
BRANCH 162 164
ATOM    164  CA  LEU    18      67.948  40.228  47.812  1.00  0.00     0.159 C 
BRANCH 164 165
ATOM    165  C   LEU    18      67.650  39.580  49.170  1.00  0.00     0.251 C 
ATOM    166  O   LEU    18      66.718  39.950  49.877  1.00  0.00    -0.271 OA
ATOM    167  N   LYS    19      68.435  38.535  49.421  1.00  0.00    -0.338 N 
ATOM    168  H   LYS    19      69.102  38.218  48.751  1.00 99.99     0.164 HD
BRANCH 167 169
ATOM    169  CA  LYS    19      68.454  37.777  50.681  1.00  0.00     0.159 C 
BRANCH 169 170
ATOM    170  C   LYS    19      67.180  36.938  50.773  1.00  0.00     0.251 C 
ATOM    171  N   PHE    20      66.213  37.481  51.500  1.00  0.00    -0.336 N 
ATOM    172  H   PHE    20      66.352  38.337  51.999  1.00 99.99     0.164 HD
ATOM    173  O   LYS    19      67.110  35.826  50.246  1.00  0.00    -0.271 OA
BRANCH 171 174
ATOM    174  CA  PHE    20      64.863  36.897  51.608  1.00  0.00     0.172 C 
BRANCH 174 175
ATOM    175  CB  PHE    20      64.083  37.555  52.753  1.00  0.00     0.058 C 
BRANCH 175 176
ATOM    176  CG  PHE    20      64.214  36.800  54.085  1.00  0.00    -0.044 A 
ATOM    177  CD2 PHE    20      64.657  35.484  54.107  1.00  0.00     0.008 A 
ATOM    178  CE2 PHE    20      64.733  34.791  55.309  1.00  0.00     0.001 A 
ATOM    179  CZ  PHE    20      64.363  35.411  56.499  1.00  0.00     0.000 A 
ATOM    180  CE1 PHE    20      63.937  36.737  56.479  1.00  0.00     0.001 A 
ATOM    181  CD1 PHE    20      63.863  37.427  55.274  1.00  0.00     0.008 A 
ENDBRANCH 175 176
ENDBRANCH 174 175
BRANCH 174 182
ATOM    182  C   PHE    20      64.128  37.090  50.273  1.00  0.00     0.207 C 
ATOM    183  OXT PHE    20      63.850  36.059  49.627  1.00 99.99    -0.646 OA
ATOM    184  O   PHE    20      63.564  38.179  50.093  1.00 99.99    -0.646 OA
ENDBRANCH 174 182
ENDBRANCH 171 174
ENDBRANCH 169 170
BRANCH 169 185
ATOM    185  CB  LYS    19      68.498  38.729  51.885  1.00  0.00     0.032 C 
BRANCH 185 186
ATOM    186  CG  LYS    19      69.891  38.858  52.508  1.00  0.00     0.004 C 
BRANCH 186 187
ATOM    187  CD  LYS    19      69.924  38.366  53.960  1.00  0.00     0.032 C 
BRANCH 187 188
ATOM    188  CE  LYS    19      69.999  39.536  54.943  1.00  0.00     0.206 C 
BRANCH 188 189
ATOM    189  NZ  LYS    19      69.003  39.374  56.013  1.00  0.00    -0.064 N 
ATOM    190  HZ3 LYS    19      68.079  39.515  55.647  1.00 99.99     0.275 HD
ATOM    191  HZ1 LYS    19      69.062  38.462  56.415  1.00 99.99     0.275 HD
ATOM    192  HZ2 LYS    19      69.153  40.069  56.720  1.00 99.99     0.275 HD
ENDBRANCH 188 189
ENDBRANCH 187 188
ENDBRANCH 186 187
ENDBRANCH 185 186
ENDBRANCH 169 185
ENDBRANCH 167 169
ENDBRANCH 164 165
BRANCH 164 193
ATOM    193  CB  LEU    18      67.514  41.700  47.849  1.00  0.00     0.032 C 
BRANCH 193 194
ATOM    194  CG  LEU    18      68.431  42.626  47.042  1.00  0.00     0.002 C 
ATOM    195  CD1 LEU    18      69.784  41.946  46.830  1.00  0.00     0.000 C 
ATOM    196  CD2 LEU    18      67.818  42.974  45.679  1.00  0.00     0.000 C 
ENDBRANCH 193 194
ENDBRANCH 164 193
ENDBRANCH 162 164
ENDBRANCH 159 160
BRANCH 159 197
ATOM    197  CB  SER    17      67.719  36.762  44.138  1.00  0.00     0.169 C 
BRANCH 197 198
ATOM    198  OG  SER    17      67.588  35.597  44.961  1.00  0.00    -0.380 OA
ATOM    199  HG  SER    17      67.650  35.912  45.910  1.00 99.99     0.211 HD
ENDBRANCH 197 198
ENDBRANCH 159 197
ENDBRANCH 156 159
ENDBRANCH 154 155
BRANCH 154 200
ATOM    200  CB  LYS    16      65.663  40.831  42.101  1.00  0.00     0.032 C 
BRANCH 200 201
ATOM    201  CG  LYS    16      65.106  41.752  41.013  1.00  0.00     0.004 C 
BRANCH 201 202
ATOM    202  CD  LYS    16      63.701  41.284  40.629  1.00  0.00     0.032 C 
BRANCH 202 203
ATOM    203  CE  LYS    16      63.702  39.864  40.063  1.00  0.00     0.206 C 
BRANCH 203 204
ATOM    204  NZ  LYS    16      64.662  39.752  38.955  1.00  0.00    -0.064 N 
ATOM    205  HZ1 LYS    16      65.504  40.238  39.189  1.00 99.99     0.275 HD
ATOM    206  HZ2 LYS    16      64.871  38.787  38.789  1.00 99.99     0.275 HD
ATOM    207  HZ3 LYS    16      64.266  40.153  38.129  1.00 99.99     0.275 HD
ENDBRANCH 203 204
ENDBRANCH 202 203
ENDBRANCH 201 202
ENDBRANCH 200 201
ENDBRANCH 154 200
ENDBRANCH 151 154
ENDBRANCH 149 150
BRANCH 149 208
ATOM    208  CB  CYS    15      69.957  39.231  39.021  1.00  0.00     0.085 C 
BRANCH 208 209
ATOM    209  SG  CYS    15      70.912  40.275  37.857  1.00  0.00    -0.165 SA
ATOM    210  HG  CYS    15      71.075  39.333  36.934  1.00 99.99     0.102 HD
ENDBRANCH 208 209
ENDBRANCH 149 208
ENDBRANCH 146 149
ENDBRANCH 132 145
ENDBRANCH 129 132
ENDBRANCH 120 128
ENDBRANCH 118 120
ENDBRANCH 115 116
BRANCH 115 211
ATOM    211  CB  LYS    12      59.920  42.908  35.432  1.00  0.00     0.032 C 
BRANCH 211 212
ATOM    212  CG  LYS    12      59.072  43.840  34.562  1.00  0.00     0.004 C 
BRANCH 212 213
ATOM    213  CD  LYS    12      57.732  44.110  35.252  1.00  0.00     0.032 C 
BRANCH 213 214
ATOM    214  CE  LYS    12      56.779  42.919  35.125  1.00  0.00     0.206 C 
BRANCH 214 215
ATOM    215  NZ  LYS    12      55.573  43.288  34.368  1.00  0.00    -0.064 N 
ATOM    216  HZ3 LYS    12      55.338  42.551  33.734  1.00 99.99     0.275 HD
ATOM    217  HZ2 LYS    12      55.744  44.128  33.854  1.00 99.99     0.275 HD
ATOM    218  HZ1 LYS    12      54.814  43.435  35.002  1.00 99.99     0.275 HD
ENDBRANCH 214 215
ENDBRANCH 213 214
ENDBRANCH 212 213
ENDBRANCH 211 212
ENDBRANCH 115 211
ENDBRANCH 112 115
ENDBRANCH 110 111
BRANCH 110 219
ATOM    219  CB  ILE    11      58.740  36.962  36.229  1.00  0.00     0.029 C 
ATOM    220  CG2 ILE    11      60.042  36.290  35.766  1.00  0.00     0.002 C 
BRANCH 219 221
ATOM    221  CG1 ILE    11      57.937  36.082  37.204  1.00  0.00     0.002 C 
ATOM    222  CD  ILE    11      57.778  34.632  36.724  1.00  0.00     0.000 C 
ENDBRANCH 219 221
ENDBRANCH 110 219
ENDBRANCH 108 110
ENDBRANCH 105 106
BRANCH 105 223
ATOM    223  CB  LYS    10      57.681  41.159  40.709  1.00  0.00     0.032 C 
BRANCH 223 224
ATOM    224  CG  LYS    10      58.764  41.238  41.791  1.00  0.00     0.004 C 
BRANCH 224 225
ATOM    225  CD  LYS    10      59.678  42.444  41.574  1.00  0.00     0.032 C 
BRANCH 225 226
ATOM    226  CE  LYS    10      59.245  43.227  40.332  1.00  0.00     0.206 C 
BRANCH 226 227
ATOM    227  NZ  LYS    10      60.213  43.064  39.239  1.00  0.00    -0.064 N 
ATOM    228  HZ2 LYS    10      60.468  42.100  39.164  1.00 99.99     0.275 HD
ATOM    229  HZ3 LYS    10      59.802  43.369  38.380  1.00 99.99     0.275 HD
ATOM    230  HZ1 LYS    10      61.027  43.611  39.432  1.00 99.99     0.275 HD
ENDBRANCH 226 227
ENDBRANCH 225 226
ENDBRANCH 224 225
ENDBRANCH 223 224
ENDBRANCH 105 223
ENDBRANCH 102 105
ENDBRANCH  96 101
ENDBRANCH  94  96
ENDBRANCH  80  92
ENDBRANCH  78  80
ENDBRANCH  72  76
ENDBRANCH  69  72
ENDBRANCH  55  68
ENDBRANCH  52  55
ENDBRANCH  47  51
ENDBRANCH  31  44
ENDBRANCH  29  31
ENDBRANCH  26  27
BRANCH  26 231
ATOM    231  CB  LEU     3      62.658  41.071  53.094  1.00  0.00     0.032 C 
BRANCH 231 232
ATOM    232  CG  LEU     3      62.634  41.302  54.612  1.00  0.00     0.002 C 
ATOM    233  CD2 LEU     3      64.017  41.088  55.237  1.00  0.00     0.000 C 
ATOM    234  CD1 LEU     3      61.628  40.354  55.265  1.00  0.00     0.000 C 
ENDBRANCH 231 232
ENDBRANCH  26 231
ENDBRANCH  24  26
ENDBRANCH  18  22
ENDBRANCH  15  18
ENDBRANCH   5  14
ENDBRANCH   1   5
TORSDOF 98
ENDMDL
MODEL 8
REMARK VINA RESULT:      -2.4      1.792      2.513
REMARK WARNING: 32 MAX_TORS EXCEEDED!!!
REMARK  98 active torsions:
REMARK  status: ('A' for Active; 'I' for Inactive)
REMARK    1  A    between atoms: N_1  and  CA_2 
REMARK    2  A    between atoms: CA_2  and  CB_5 
REMARK    3  A    between atoms: CA_2  and  C_3 
REMARK       I    between atoms: C_3  and  N_16 
REMARK    4  A    between atoms: CB_5  and  CG_6 
REMARK    5  A    between atoms: CG_6  and  CD_7 
REMARK    6  A    between atoms: CD_7  and  CE_8 
REMARK    7  A    between atoms: CE_8  and  NZ_9 
REMARK    8  A    between atoms: N_16  and  CA_17 
REMARK    9  A    between atoms: CA_17  and  CB_20 
REMARK   10  A    between atoms: CA_17  and  C_18 
REMARK       I    between atoms: C_18  and  N_24 
REMARK   11  A    between atoms: CB_20  and  OG_21 
REMARK   12  A    between atoms: N_24  and  CA_25 
REMARK   13  A    between atoms: CA_25  and  C_26 
REMARK   14  A    between atoms: CA_25  and  CB_28 
REMARK       I    between atoms: C_26  and  N_33 
REMARK   15  A    between atoms: CB_28  and  CG_29 
REMARK   16  A    between atoms: N_33  and  CA_34 
REMARK   17  A    between atoms: CA_34  and  CB_37 
REMARK   18  A    between atoms: CA_34  and  C_35 
REMARK       I    between atoms: C_35  and  N_50 
REMARK   19  A    between atoms: CB_37  and  CG_38 
REMARK   20  A    between atoms: CG_38  and  CD_39 
REMARK   21  A    between atoms: CD_39  and  NE_40 
REMARK       I    between atoms: NE_40  and  CZ_41 
REMARK       I    between atoms: CZ_41  and  NH1_42 
REMARK       I    between atoms: CZ_41  and  NH2_43 
REMARK   22  A    between atoms: CA_51  and  C_52 
REMARK       I    between atoms: C_52  and  N_57 
REMARK   23  A    between atoms: N_57  and  CA_58 
REMARK   24  A    between atoms: CA_58  and  CB_61 
REMARK   25  A    between atoms: CA_58  and  C_59 
REMARK       I    between atoms: C_59  and  N_74 
REMARK   26  A    between atoms: CB_61  and  CG_62 
REMARK   27  A    between atoms: CG_62  and  CD_63 
REMARK   28  A    between atoms: CD_63  and  NE_64 
REMARK       I    between atoms: NE_64  and  CZ_65 
REMARK       I    between atoms: CZ_65  and  NH2_67 
REMARK       I    between atoms: CZ_65  and  NH1_66 
REMARK   29  A    between atoms: N_74  and  CA_75 
REMARK   30  A    between atoms: CA_75  and  CB_78 
REMARK   31  A    between atoms: CA_75  and  C_76 
REMARK       I    between atoms: C_76  and  N_82 
REMARK   32  A    between atoms: CB_78  and  SG_79 
REMARK   33  A    between atoms: N_82  and  CA_83 
REMARK   34  A    between atoms: CA_83  and  CB_86 
REMARK   35  A    between atoms: CA_83  and  C_84 
REMARK       I    between atoms: C_84  and  N_98 
REMARK   36  A    between atoms: CB_86  and  CG_87 
REMARK   37  A    between atoms: N_98  and  CA_99 
REMARK   38  A    between atoms: CA_99  and  CB_102 
REMARK   39  A    between atoms: CA_99  and  C_100 
REMARK       I    between atoms: C_100  and  N_107 
REMARK   40  A    between atoms: CB_102  and  CG1_103 
REMARK   41  A    between atoms: N_107  and  CA_108 
REMARK   42  A    between atoms: CA_108  and  C_109 
REMARK   43  A    between atoms: CA_108  and  CB_111 
REMARK       I    between atoms: C_109  and  N_120 
REMARK   44  A    between atoms: CB_111  and  CG_112 
REMARK   45  A    between atoms: CG_112  and  CD_113 
REMARK   46  A    between atoms: CD_113  and  CE_114 
REMARK   47  A    between atoms: CE_114  and  NZ_115 
REMARK   48  A    between atoms: N_120  and  CA_121 
REMARK   49  A    between atoms: CA_121  and  C_122 
REMARK   50  A    between atoms: CA_121  and  CB_124 
REMARK       I    between atoms: C_122  and  N_129 
REMARK   51  A    between atoms: CB_124  and  CG1_125 
REMARK   52  A    between atoms: N_129  and  CA_130 
REMARK   53  A    between atoms: CA_130  and  C_131 
REMARK   54  A    between atoms: CA_130  and  CB_133 
REMARK       I    between atoms: C_131  and  N_142 
REMARK   55  A    between atoms: CB_133  and  CG_134 
REMARK   56  A    between atoms: CG_134  and  CD_135 
REMARK   57  A    between atoms: CD_135  and  CE_136 
REMARK   58  A    between atoms: CE_136  and  NZ_137 
REMARK   59  A    between atoms: N_142  and  CA_143 
REMARK   60  A    between atoms: CA_143  and  CB_146 
REMARK   61  A    between atoms: CA_143  and  C_144 
REMARK       I    between atoms: C_144  and  N_154 
REMARK   62  A    between atoms: CB_146  and  CG_147 
REMARK   63  A    between atoms: N_154  and  CA_155 
REMARK   64  A    between atoms: CA_155  and  CB_158 
REMARK   65  A    between atoms: CA_155  and  C_156 
REMARK       I    between atoms: C_156  and  N_171 
REMARK   66  A    between atoms: CB_158  and  CG_159 
REMARK   67  A    between atoms: CG_159  and  CD_160 
REMARK   68  A    between atoms: CD_160  and  NE_161 
REMARK       I    between atoms: NE_161  and  CZ_162 
REMARK       I    between atoms: CZ_162  and  NH1_163 
REMARK   69  A    between atoms: N_171  and  CA_172 
REMARK   70  A    between atoms: CA_172  and  C_173 
REMARK   71  A    between atoms: CA_172  and  CB_175 
REMARK       I    between atoms: C_173  and  N_179 
REMARK   72  A    between atoms: CB_175  and  SG_176 
REMARK   73  A    between atoms: N_179  and  CA_180 
REMARK   74  A    between atoms: CA_180  and  C_181 
REMARK   75  A    between atoms: CA_180  and  CB_183 
REMARK       I    between atoms: C_181  and  N_192 
REMARK   76  A    between atoms: CB_183  and  CG_184 
REMARK   77  A    between atoms: CG_184  and  CD_185 
REMARK   78  A    between atoms: CD_185  and  CE_186 
REMARK   79  A    between atoms: CE_186  and  NZ_187 
REMARK   80  A    between atoms: N_192  and  CA_193 
REMARK   81  A    between atoms: CA_193  and  C_194 
REMARK   82  A    between atoms: CA_193  and  CB_196 
REMARK       I    between atoms: C_194  and  N_200 
REMARK   83  A    between atoms: CB_196  and  OG_197 
REMARK   84  A    between atoms: N_200  and  CA_201 
REMARK   85  A    between atoms: CA_201  and  C_202 
REMARK   86  A    between atoms: CA_201  and  CB_204 
REMARK       I    between atoms: C_202  and  N_209 
REMARK   87  A    between atoms: CB_204  and  CG_205 
REMARK   88  A    between atoms: N_209  and  CA_210 
REMARK   89  A    between atoms: CA_210  and  C_211 
REMARK   90  A    between atoms: CA_210  and  CB_213 
REMARK       I    between atoms: C_211  and  N_222 
REMARK   91  A    between atoms: CB_213  and  CG_214 
REMARK   92  A    between atoms: CG_214  and  CD_215 
REMARK   93  A    between atoms: CD_215  and  CE_216 
REMARK   94  A    between atoms: CE_216  and  NZ_217 
REMARK   95  A    between atoms: N_222  and  CA_223 
REMARK   96  A    between atoms: CA_223  and  CB_226 
REMARK   97  A    between atoms: CA_223  and  C_224 
REMARK   98  A    between atoms: CB_226  and  CG_227 
ROOT
ATOM      1  N   LYS     1      67.567  42.076  56.255  1.00  0.00    -0.058 N 
ATOM      2  H1  LYS     1      67.517  41.310  56.897  1.00 99.99     0.276 HD
ATOM      3  H2  LYS     1      68.008  42.827  56.707  1.00 99.99     0.276 HD
ATOM      4  H3  LYS     1      66.655  42.384  56.046  1.00 99.99     0.276 HD
ENDROOT
BRANCH   1   5
ATOM      5  CA  LYS     1      68.323  41.606  55.067  1.00  0.00     0.255 C 
BRANCH   5   6
ATOM      6  CB  LYS     1      69.716  41.080  55.466  1.00  0.00     0.040 C 
BRANCH   6   7
ATOM      7  CG  LYS     1      70.510  42.016  56.396  1.00  0.00     0.004 C 
BRANCH   7   8
ATOM      8  CD  LYS     1      71.012  41.291  57.651  1.00  0.00     0.032 C 
BRANCH   8   9
ATOM      9  CE  LYS     1      70.336  41.811  58.926  1.00  0.00     0.206 C 
BRANCH   9  10
ATOM     10  NZ  LYS     1      71.026  41.356  60.145  1.00  0.00    -0.064 N 
ATOM     11  HZ1 LYS     1      71.916  41.809  60.217  1.00 99.99     0.275 HD
ATOM     12  HZ2 LYS     1      70.477  41.583  60.949  1.00 99.99     0.275 HD
ATOM     13  HZ3 LYS     1      71.166  40.366  60.106  1.00 99.99     0.275 HD
ENDBRANCH   9  10
ENDBRANCH   8   9
ENDBRANCH   7   8
ENDBRANCH   6   7
ENDBRANCH   5   6
BRANCH   5  14
ATOM     14  C   LYS     1      67.501  40.472  54.430  1.00  0.00     0.259 C 
ATOM     15  N   SER     2      66.570  39.934  55.206  1.00  0.00    -0.336 N 
ATOM     16  H   SER     2      66.379  40.252  56.133  1.00 99.99     0.164 HD
ATOM     17  O   LYS     1      67.818  40.005  53.335  1.00  0.00    -0.271 OA
BRANCH  15  18
ATOM     18  CA  SER     2      65.720  38.812  54.766  1.00  0.00     0.189 C 
BRANCH  18  19
ATOM     19  CB  SER     2      66.524  37.500  54.837  1.00  0.00     0.169 C 
BRANCH  19  20
ATOM     20  OG  SER     2      67.037  37.106  53.548  1.00  0.00    -0.380 OA
ATOM     21  HG  SER     2      67.028  36.116  53.398  1.00 99.99     0.211 HD
ENDBRANCH  19  20
ENDBRANCH  18  19
BRANCH  18  22
ATOM     22  C   SER     2      64.511  38.773  55.718  1.00  0.00     0.253 C 
ATOM     23  O   SER     2      64.250  37.750  56.348  1.00  0.00    -0.270 OA
ATOM     24  N   LEU     3      63.921  39.933  56.011  1.00  0.00    -0.337 N 
ATOM     25  H   LEU     3      64.366  40.815  55.894  1.00 99.99     0.164 HD
BRANCH  24  26
ATOM     26  CA  LEU     3      62.636  39.931  56.741  1.00  0.00     0.159 C 
BRANCH  26  27
ATOM     27  C   LEU     3      61.437  39.996  55.772  1.00  0.00     0.251 C 
ATOM     28  O   LEU     3      60.350  39.489  56.058  1.00  0.00    -0.271 OA
ATOM     29  N   ARG     4      61.622  40.709  54.666  1.00  0.00    -0.338 N 
ATOM     30  H   ARG     4      62.467  41.219  54.517  1.00 99.99     0.164 HD
BRANCH  29  31
ATOM     31  CA  ARG     4      60.635  40.783  53.575  1.00  0.00     0.160 C 
BRANCH  31  32
ATOM     32  CB  ARG     4      60.812  42.093  52.797  1.00  0.00     0.034 C 
BRANCH  32  33
ATOM     33  CG  ARG     4      62.274  42.554  52.768  1.00  0.00     0.027 C 
BRANCH  33  34
ATOM     34  CD  ARG     4      62.680  43.119  51.404  1.00  0.00     0.116 C 
BRANCH  34  35
ATOM     35  NE  ARG     4      62.620  42.083  50.358  1.00  0.00    -0.212 N 
ATOM     36  CZ  ARG     4      61.714  41.988  49.379  1.00  0.00     0.666 C 
ATOM     37  NH1 ARG     4      60.740  42.886  49.232  1.00  0.00    -0.235 N 
ATOM     38  NH2 ARG     4      61.729  40.955  48.555  1.00  0.00    -0.235 N 
ATOM     39 2HH1 ARG     4      60.691  43.653  49.866  1.00 99.99     0.174 HD
ATOM     40 1HH1 ARG     4      60.080  42.793  48.491  1.00 99.99     0.174 HD
ATOM     41 1HH2 ARG     4      61.048  40.891  47.828  1.00 99.99     0.174 HD
ATOM     42 2HH2 ARG     4      62.411  40.231  48.659  1.00 99.99     0.174 HD
ATOM     43  HE  ARG     4      63.357  41.410  50.384  1.00 99.99     0.178 HD
ENDBRANCH  34  35
ENDBRANCH  33  34
ENDBRANCH  32  33
ENDBRANCH  31  32
BRANCH  31  44
ATOM     44  C   ARG     4      60.855  39.583  52.634  1.00  0.00     0.254 C 
ATOM     45  N   PRO     5      59.901  38.639  52.525  1.00  0.00    -0.312 N 
ATOM     46  CD  PRO     5      58.599  38.664  53.223  1.00  0.00     0.105 C 
ATOM     47  CA  PRO     5      60.017  37.400  51.710  1.00  0.00     0.163 C 
ATOM     48  CG  PRO     5      57.785  37.545  52.572  1.00  0.00     0.027 C 
ATOM     49  CB  PRO     5      58.854  36.524  52.192  1.00  0.00     0.034 C 
ATOM     50  O   ARG     4      61.885  39.602  51.956  1.00  0.00    -0.270 OA
BRANCH  47  51
ATOM     51  C   PRO     5      60.080  37.554  50.173  1.00  0.00     0.251 C 
ATOM     52  N   ARG     6      59.080  36.947  49.540  1.00  0.00    -0.338 N 
ATOM     53  H   ARG     6      58.508  36.325  50.073  1.00 99.99     0.164 HD
ATOM     54  O   PRO     5      61.060  38.013  49.595  1.00  0.00    -0.271 OA
BRANCH  52  55
ATOM     55  CA  ARG     6      58.662  37.053  48.129  1.00  0.00     0.159 C 
BRANCH  55  56
ATOM     56  CB  ARG     6      58.525  35.662  47.494  1.00  0.00     0.034 C 
BRANCH  56  57
ATOM     57  CG  ARG     6      59.435  34.614  48.143  1.00  0.00     0.027 C 
BRANCH  57  58
ATOM     58  CD  ARG     6      60.654  34.301  47.267  1.00  0.00     0.116 C 
BRANCH  58  59
ATOM     59  NE  ARG     6      61.896  34.750  47.915  1.00  0.00    -0.212 N 
ATOM     60  CZ  ARG     6      62.508  35.933  47.738  1.00  0.00     0.666 C 
ATOM     61  NH2 ARG     6      63.557  36.251  48.480  1.00  0.00    -0.235 N 
ATOM     62  NH1 ARG     6      62.051  36.841  46.888  1.00  0.00    -0.235 N 
ATOM     63 2HH2 ARG     6      63.899  35.628  49.179  1.00 99.99     0.174 HD
ATOM     64 1HH2 ARG     6      64.005  37.133  48.339  1.00 99.99     0.174 HD
ATOM     65 1HH1 ARG     6      62.528  37.711  46.775  1.00 99.99     0.174 HD
ATOM     66 2HH1 ARG     6      61.222  36.647  46.366  1.00 99.99     0.174 HD
ATOM     67  HE  ARG     6      62.305  34.099  48.545  1.00 99.99     0.178 HD
ENDBRANCH  58  59
ENDBRANCH  57  58
ENDBRANCH  56  57
ENDBRANCH  55  56
BRANCH  55  68
ATOM     68  C   ARG     6      57.318  37.796  47.975  1.00  0.00     0.251 C 
ATOM     69  N   CYS     7      56.707  37.723  46.782  1.00  0.00    -0.337 N 
ATOM     70  H   CYS     7      57.052  37.141  46.045  1.00 99.99     0.164 HD
ATOM     71  O   ARG     6      56.888  38.493  48.891  1.00  0.00    -0.271 OA
BRANCH  69  72
ATOM     72  CA  CYS     7      55.459  38.429  46.435  1.00  0.00     0.170 C 
BRANCH  72  73
ATOM     73  CB  CYS     7      54.490  38.387  47.633  1.00  0.00     0.085 C 
BRANCH  73  74
ATOM     74  SG  CYS     7      53.382  36.937  47.794  1.00  0.00    -0.165 SA
ATOM     75  HG  CYS     7      52.335  37.473  47.179  1.00 99.99     0.102 HD
ENDBRANCH  73  74
ENDBRANCH  72  73
BRANCH  72  76
ATOM     76  C   CYS     7      55.751  39.910  46.091  1.00  0.00     0.252 C 
ATOM     77  O   CYS     7      54.902  40.618  45.545  1.00  0.00    -0.271 OA
ATOM     78  N   TRP     8      56.946  40.387  46.432  1.00  0.00    -0.337 N 
ATOM     79  H   TRP     8      57.604  39.870  46.979  1.00 99.99     0.164 HD
BRANCH  78  80
ATOM     80  CA  TRP     8      57.340  41.778  46.108  1.00  0.00     0.164 C 
BRANCH  80  81
ATOM     81  CB  TRP     8      58.040  42.461  47.288  1.00  0.00     0.059 C 
BRANCH  81  82
ATOM     82  CG  TRP     8      57.069  43.098  48.291  1.00  0.00    -0.016 A 
ATOM     83  CD1 TRP     8      56.254  44.128  48.099  1.00  0.00     0.097 A 
ATOM     84  NE1 TRP     8      55.543  44.350  49.207  1.00  0.00    -0.365 N 
ATOM     85  HE1 TRP     8      54.935  45.129  49.344  1.00 99.99     0.165 HD
ATOM     86  CE2 TRP     8      55.892  43.460  50.136  1.00  0.00     0.042 A 
ATOM     87  CZ2 TRP     8      55.483  43.249  51.445  1.00  0.00     0.030 A 
ATOM     88  CD2 TRP     8      56.879  42.658  49.590  1.00  0.00    -0.001 A 
ATOM     89  CH2 TRP     8      56.083  42.247  52.207  1.00  0.00     0.002 A 
ATOM     90  CZ3 TRP     8      57.091  41.467  51.662  1.00  0.00     0.001 A 
ATOM     91  CE3 TRP     8      57.489  41.670  50.346  1.00  0.00     0.014 A 
ENDBRANCH  81  82
ENDBRANCH  80  81
BRANCH  80  92
ATOM     92  C   TRP     8      58.162  41.890  44.820  1.00  0.00     0.251 C 
ATOM     93  O   TRP     8      58.243  42.925  44.159  1.00  0.00    -0.271 OA
ATOM     94  N   ILE     9      58.695  40.732  44.436  1.00  0.00    -0.338 N 
ATOM     95  H   ILE     9      58.491  39.885  44.927  1.00 99.99     0.164 HD
BRANCH  94  96
ATOM     96  CA  ILE     9      59.622  40.589  43.297  1.00  0.00     0.159 C 
BRANCH  96  97
ATOM     97  CB  ILE     9      60.721  39.557  43.650  1.00  0.00     0.029 C 
ATOM     98  CG2 ILE     9      61.133  38.756  42.403  1.00  0.00     0.002 C 
BRANCH  97  99
ATOM     99  CG1 ILE     9      61.950  40.261  44.260  1.00  0.00     0.002 C 
ATOM    100  CD  ILE     9      62.244  41.654  43.687  1.00  0.00     0.000 C 
ENDBRANCH  97  99
ENDBRANCH  96  97
BRANCH  96 101
ATOM    101  C   ILE     9      58.865  40.258  41.993  1.00  0.00     0.251 C 
ATOM    102  N   LYS    10      58.908  41.224  41.073  1.00  0.00    -0.338 N 
ATOM    103  H   LYS    10      59.272  42.123  41.322  1.00 99.99     0.164 HD
ATOM    104  O   ILE     9      58.129  39.275  41.923  1.00  0.00    -0.271 OA
BRANCH 102 105
ATOM    105  CA  LYS    10      58.430  41.138  39.672  1.00  0.00     0.159 C 
BRANCH 105 106
ATOM    106  C   LYS    10      58.366  39.713  39.059  1.00  0.00     0.251 C 
ATOM    107  O   LYS    10      59.369  39.117  38.669  1.00  0.00    -0.271 OA
ATOM    108  N   ILE    11      57.145  39.205  38.878  1.00  0.00    -0.338 N 
ATOM    109  H   ILE    11      56.324  39.715  39.121  1.00 99.99     0.164 HD
BRANCH 108 110
ATOM    110  CA  ILE    11      56.914  37.855  38.312  1.00  0.00     0.159 C 
BRANCH 110 111
ATOM    111  C   ILE    11      57.903  36.788  38.822  1.00  0.00     0.251 C 
ATOM    112  N   LYS    12      58.054  36.719  40.147  1.00  0.00    -0.338 N 
ATOM    113  H   LYS    12      57.685  37.426  40.749  1.00 99.99     0.164 HD
ATOM    114  O   ILE    11      58.487  36.043  38.036  1.00  0.00    -0.271 OA
BRANCH 112 115
ATOM    115  CA  LYS    12      58.860  35.674  40.819  1.00  0.00     0.159 C 
BRANCH 115 116
ATOM    116  C   LYS    12      60.189  35.393  40.088  1.00  0.00     0.251 C 
ATOM    117  O   LYS    12      60.492  34.275  39.674  1.00  0.00    -0.271 OA
ATOM    118  N   PHE    13      60.994  36.448  39.940  1.00  0.00    -0.337 N 
ATOM    119  H   PHE    13      60.831  37.305  40.423  1.00 99.99     0.164 HD
BRANCH 118 120
ATOM    120  CA  PHE    13      62.266  36.372  39.191  1.00  0.00     0.164 C 
BRANCH 120 121
ATOM    121  CB  PHE    13      63.085  35.139  39.611  1.00  0.00     0.056 C 
BRANCH 121 122
ATOM    122  CG  PHE    13      64.384  35.461  40.352  1.00  0.00    -0.044 A 
ATOM    123  CD1 PHE    13      65.427  36.093  39.682  1.00  0.00     0.008 A 
ATOM    124  CE1 PHE    13      66.615  36.365  40.341  1.00  0.00     0.001 A 
ATOM    125  CZ  PHE    13      66.770  36.004  41.678  1.00  0.00     0.000 A 
ATOM    126  CE2 PHE    13      65.720  35.385  42.351  1.00  0.00     0.001 A 
ATOM    127  CD2 PHE    13      64.535  35.110  41.690  1.00  0.00     0.008 A 
ENDBRANCH 121 122
ENDBRANCH 120 121
BRANCH 120 128
ATOM    128  C   PHE    13      62.093  36.428  37.663  1.00  0.00     0.251 C 
ATOM    129  N   ARG    14      61.704  37.613  37.191  1.00  0.00    -0.338 N 
ATOM    130  H   ARG    14      61.298  38.290  37.798  1.00 99.99     0.164 HD
ATOM    131  O   PHE    13      62.243  35.430  36.966  1.00  0.00    -0.271 OA
BRANCH 129 132
ATOM    132  CA  ARG    14      61.619  37.898  35.744  1.00  0.00     0.159 C 
BRANCH 132 133
ATOM    133  CB  ARG    14      60.289  38.578  35.379  1.00  0.00     0.034 C 
BRANCH 133 134
ATOM    134  CG  ARG    14      59.686  38.046  34.070  1.00  0.00     0.027 C 
BRANCH 134 135
ATOM    135  CD  ARG    14      60.189  36.636  33.737  1.00  0.00     0.116 C 
BRANCH 135 136
ATOM    136  NE  ARG    14      59.075  35.676  33.736  1.00  0.00    -0.212 N 
ATOM    137  CZ  ARG    14      58.804  34.767  34.685  1.00  0.00     0.666 C 
ATOM    138  NH1 ARG    14      59.504  34.684  35.806  1.00  0.00    -0.235 N 
ATOM    139  NH2 ARG    14      57.845  33.877  34.490  1.00  0.00    -0.235 N 
ATOM    140 2HH1 ARG    14      60.245  35.339  35.978  1.00 99.99     0.174 HD
ATOM    141 1HH1 ARG    14      59.283  33.998  36.496  1.00 99.99     0.174 HD
ATOM    142 2HH2 ARG    14      57.318  33.873  33.644  1.00 99.99     0.174 HD
ATOM    143 1HH2 ARG    14      57.656  33.201  35.202  1.00 99.99     0.174 HD
ATOM    144  HE  ARG    14      58.478  35.723  32.941  1.00 99.99     0.178 HD
ENDBRANCH 135 136
ENDBRANCH 134 135
ENDBRANCH 133 134
ENDBRANCH 132 133
BRANCH 132 145
ATOM    145  C   ARG    14      62.808  38.662  35.133  1.00  0.00     0.251 C 
ATOM    146  N   CYS    15      63.394  39.588  35.892  1.00  0.00    -0.337 N 
ATOM    147  H   CYS    15      63.159  39.716  36.851  1.00 99.99     0.164 HD
ATOM    148  O   ARG    14      63.206  38.384  34.005  1.00  0.00    -0.271 OA
BRANCH 146 149
ATOM    149  CA  CYS    15      64.511  40.434  35.420  1.00  0.00     0.170 C 
BRANCH 149 150
ATOM    150  C   CYS    15      65.908  39.835  35.660  1.00  0.00     0.252 C 
ATOM    151  N   LYS    16      65.984  39.054  36.738  1.00  0.00    -0.337 N 
ATOM    152  H   LYS    16      65.212  38.946  37.359  1.00 99.99     0.164 HD
ATOM    153  O   CYS    15      66.780  39.884  34.797  1.00  0.00    -0.271 OA
BRANCH 151 154
ATOM    154  CA  LYS    16      67.215  38.346  37.151  1.00  0.00     0.159 C 
BRANCH 154 155
ATOM    155  C   LYS    16      68.277  39.277  37.767  1.00  0.00     0.251 C 
ATOM    156  N   SER    17      68.650  38.964  39.010  1.00  0.00    -0.336 N 
ATOM    157  H   SER    17      68.251  38.179  39.485  1.00 99.99     0.164 HD
ATOM    158  O   LYS    16      68.698  40.277  37.180  1.00  0.00    -0.271 OA
BRANCH 156 159
ATOM    159  CA  SER    17      69.700  39.685  39.755  1.00  0.00     0.189 C 
BRANCH 159 160
ATOM    160  C   SER    17      69.111  40.814  40.614  1.00  0.00     0.253 C 
ATOM    161  O   SER    17      69.091  41.957  40.168  1.00  0.00    -0.270 OA
ATOM    162  N   LEU    18      68.814  40.522  41.883  1.00  0.00    -0.337 N 
ATOM    163  H   LEU    18      68.983  39.597  42.229  1.00 99.99     0.164 HD
BRANCH 162 164
ATOM    164  CA  LEU    18      68.215  41.460  42.847  1.00  0.00     0.159 C 
BRANCH 164 165
ATOM    165  C   LEU    18      68.955  41.536  44.188  1.00  0.00     0.251 C 
ATOM    166  O   LEU    18      70.156  41.306  44.283  1.00  0.00    -0.271 OA
ATOM    167  N   LYS    19      68.177  41.972  45.177  1.00  0.00    -0.338 N 
ATOM    168  H   LYS    19      67.234  42.248  45.008  1.00 99.99     0.164 HD
BRANCH 167 169
ATOM    169  CA  LYS    19      68.575  42.052  46.590  1.00  0.00     0.159 C 
BRANCH 169 170
ATOM    170  C   LYS    19      68.187  40.748  47.288  1.00  0.00     0.251 C 
ATOM    171  N   PHE    20      66.988  40.761  47.854  1.00  0.00    -0.336 N 
ATOM    172  H   PHE    20      66.428  41.589  47.874  1.00 99.99     0.164 HD
ATOM    173  O   LYS    19      68.971  39.800  47.346  1.00  0.00    -0.271 OA
BRANCH 171 174
ATOM    174  CA  PHE    20      66.374  39.566  48.462  1.00  0.00     0.172 C 
BRANCH 174 175
ATOM    175  CB  PHE    20      66.783  39.443  49.935  1.00  0.00     0.058 C 
BRANCH 175 176
ATOM    176  CG  PHE    20      67.600  38.176  50.232  1.00  0.00    -0.044 A 
ATOM    177  CD2 PHE    20      68.922  38.272  50.644  1.00  0.00     0.008 A 
ATOM    178  CE2 PHE    20      69.671  37.123  50.870  1.00  0.00     0.001 A 
ATOM    179  CZ  PHE    20      69.100  35.868  50.682  1.00  0.00     0.000 A 
ATOM    180  CE1 PHE    20      67.767  35.771  50.286  1.00  0.00     0.001 A 
ATOM    181  CD1 PHE    20      67.022  36.924  50.063  1.00  0.00     0.008 A 
ENDBRANCH 175 176
ENDBRANCH 174 175
BRANCH 174 182
ATOM    182  C   PHE    20      64.846  39.669  48.333  1.00  0.00     0.207 C 
ATOM    183  OXT PHE    20      64.398  40.093  47.249  1.00 99.99    -0.646 OA
ATOM    184  O   PHE    20      64.168  39.021  49.144  1.00 99.99    -0.646 OA
ENDBRANCH 174 182
ENDBRANCH 171 174
ENDBRANCH 169 170
BRANCH 169 185
ATOM    185  CB  LYS    19      67.854  43.212  47.292  1.00  0.00     0.032 C 
BRANCH 185 186
ATOM    186  CG  LYS    19      66.942  44.015  46.360  1.00  0.00     0.004 C 
BRANCH 186 187
ATOM    187  CD  LYS    19      65.606  44.372  47.023  1.00  0.00     0.032 C 
BRANCH 187 188
ATOM    188  CE  LYS    19      65.597  43.979  48.502  1.00  0.00     0.206 C 
BRANCH 188 189
ATOM    189  NZ  LYS    19      66.107  45.081  49.331  1.00  0.00    -0.064 N 
ATOM    190  HZ3 LYS    19      65.533  45.192  50.146  1.00 99.99     0.275 HD
ATOM    191  HZ1 LYS    19      67.048  44.903  49.614  1.00 99.99     0.275 HD
ATOM    192  HZ2 LYS    19      66.063  45.939  48.814  1.00 99.99     0.275 HD
ENDBRANCH 188 189
ENDBRANCH 187 188
ENDBRANCH 186 187
ENDBRANCH 185 186
ENDBRANCH 169 185
ENDBRANCH 167 169
ENDBRANCH 164 165
BRANCH 164 193
ATOM    193  CB  LEU    18      66.747  41.086  43.101  1.00  0.00     0.032 C 
BRANCH 193 194
ATOM    194  CG  LEU    18      66.458  39.591  42.918  1.00  0.00     0.002 C 
ATOM    195  CD1 LEU    18      66.191  38.954  44.282  1.00  0.00     0.000 C 
ATOM    196  CD2 LEU    18      65.248  39.362  42.003  1.00  0.00     0.000 C 
ENDBRANCH 193 194
ENDBRANCH 164 193
ENDBRANCH 162 164
ENDBRANCH 159 160
BRANCH 159 197
ATOM    197  CB  SER    17      70.834  40.158  38.827  1.00  0.00     0.169 C 
BRANCH 197 198
ATOM    198  OG  SER    17      71.679  41.131  39.453  1.00  0.00    -0.380 OA
ATOM    199  HG  SER    17      72.615  40.778  39.387  1.00 99.99     0.211 HD
ENDBRANCH 197 198
ENDBRANCH 159 197
ENDBRANCH 156 159
ENDBRANCH 154 155
BRANCH 154 200
ATOM    200  CB  LYS    16      67.786  37.558  35.960  1.00  0.00     0.032 C 
BRANCH 200 201
ATOM    201  CG  LYS    16      68.991  36.687  36.321  1.00  0.00     0.004 C 
BRANCH 201 202
ATOM    202  CD  LYS    16      68.506  35.448  37.077  1.00  0.00     0.032 C 
BRANCH 202 203
ATOM    203  CE  LYS    16      68.379  34.230  36.162  1.00  0.00     0.206 C 
BRANCH 203 204
ATOM    204  NZ  LYS    16      69.525  34.152  35.244  1.00  0.00    -0.064 N 
ATOM    205  HZ1 LYS    16      70.081  33.352  35.469  1.00 99.99     0.275 HD
ATOM    206  HZ2 LYS    16      69.194  34.073  34.302  1.00 99.99     0.275 HD
ATOM    207  HZ3 LYS    16      70.081  34.978  35.333  1.00 99.99     0.275 HD
ENDBRANCH 203 204
ENDBRANCH 202 203
ENDBRANCH 201 202
ENDBRANCH 200 201
ENDBRANCH 154 200
ENDBRANCH 151 154
ENDBRANCH 149 150
BRANCH 149 208
ATOM    208  CB  CYS    15      64.401  41.827  36.051  1.00  0.00     0.085 C 
BRANCH 208 209
ATOM    209  SG  CYS    15      65.469  42.084  37.517  1.00  0.00    -0.165 SA
ATOM    210  HG  CYS    15      66.621  41.953  36.867  1.00 99.99     0.102 HD
ENDBRANCH 208 209
ENDBRANCH 149 208
ENDBRANCH 146 149
ENDBRANCH 132 145
ENDBRANCH 129 132
ENDBRANCH 120 128
ENDBRANCH 118 120
ENDBRANCH 115 116
BRANCH 115 211
ATOM    211  CB  LYS    12      58.052  34.373  40.980  1.00  0.00     0.032 C 
BRANCH 211 212
ATOM    212  CG  LYS    12      57.408  34.197  42.357  1.00  0.00     0.004 C 
BRANCH 212 213
ATOM    213  CD  LYS    12      56.085  34.966  42.408  1.00  0.00     0.032 C 
BRANCH 213 214
ATOM    214  CE  LYS    12      54.973  34.139  43.058  1.00  0.00     0.206 C 
BRANCH 214 215
ATOM    215  NZ  LYS    12      54.822  34.483  44.480  1.00  0.00    -0.064 N 
ATOM    216  HZ3 LYS    12      54.559  35.444  44.565  1.00 99.99     0.275 HD
ATOM    217  HZ2 LYS    12      55.688  34.330  44.955  1.00 99.99     0.275 HD
ATOM    218  HZ1 LYS    12      54.114  33.907  44.888  1.00 99.99     0.275 HD
ENDBRANCH 214 215
ENDBRANCH 213 214
ENDBRANCH 212 213
ENDBRANCH 211 212
ENDBRANCH 115 211
ENDBRANCH 112 115
ENDBRANCH 110 111
BRANCH 110 219
ATOM    219  CB  ILE    11      56.869  37.876  36.768  1.00  0.00     0.029 C 
ATOM    220  CG2 ILE    11      55.805  36.881  36.279  1.00  0.00     0.002 C 
BRANCH 219 221
ATOM    221  CG1 ILE    11      56.668  39.287  36.188  1.00  0.00     0.002 C 
ATOM    222  CD  ILE    11      56.076  39.284  34.771  1.00  0.00     0.000 C 
ENDBRANCH 219 221
ENDBRANCH 110 219
ENDBRANCH 108 110
ENDBRANCH 105 106
BRANCH 105 223
ATOM    223  CB  LYS    10      59.254  42.130  38.826  1.00  0.00     0.032 C 
BRANCH 223 224
ATOM    224  CG  LYS    10      60.556  42.565  39.505  1.00  0.00     0.004 C 
BRANCH 224 225
ATOM    225  CD  LYS    10      61.773  41.924  38.838  1.00  0.00     0.032 C 
BRANCH 225 226
ATOM    226  CE  LYS    10      62.599  41.147  39.865  1.00  0.00     0.206 C 
BRANCH 226 227
ATOM    227  NZ  LYS    10      62.869  39.779  39.403  1.00  0.00    -0.064 N 
ATOM    228  HZ2 LYS    10      63.808  39.530  39.639  1.00 99.99     0.275 HD
ATOM    229  HZ3 LYS    10      62.234  39.145  39.845  1.00 99.99     0.275 HD
ATOM    230  HZ1 LYS    10      62.749  39.735  38.412  1.00 99.99     0.275 HD
ENDBRANCH 226 227
ENDBRANCH 225 226
ENDBRANCH 224 225
ENDBRANCH 223 224
ENDBRANCH 105 223
ENDBRANCH 102 105
ENDBRANCH  96 101
ENDBRANCH  94  96
ENDBRANCH  80  92
ENDBRANCH  78  80
ENDBRANCH  72  76
ENDBRANCH  69  72
ENDBRANCH  55  68
ENDBRANCH  52  55
ENDBRANCH  47  51
ENDBRANCH  31  44
ENDBRANCH  29  31
ENDBRANCH  26  27
BRANCH  26 231
ATOM    231  CB  LEU     3      62.629  41.040  57.810  1.00  0.00     0.032 C 
BRANCH 231 232
ATOM    232  CG  LEU     3      63.918  41.075  58.645  1.00  0.00     0.002 C 
ATOM    233  CD2 LEU     3      64.077  39.807  59.489  1.00  0.00     0.000 C 
ATOM    234  CD1 LEU     3      63.908  42.299  59.562  1.00  0.00     0.000 C 
ENDBRANCH 231 232
ENDBRANCH  26 231
ENDBRANCH  24  26
ENDBRANCH  18  22
ENDBRANCH  15  18
ENDBRANCH   5  14
ENDBRANCH   1   5
TORSDOF 98
ENDMDL
MODEL 9
REMARK VINA RESULT:      -2.4      3.236     14.455
REMARK WARNING: 32 MAX_TORS EXCEEDED!!!
REMARK  98 active torsions:
REMARK  status: ('A' for Active; 'I' for Inactive)
REMARK    1  A    between atoms: N_1  and  CA_2 
REMARK    2  A    between atoms: CA_2  and  CB_5 
REMARK    3  A    between atoms: CA_2  and  C_3 
REMARK       I    between atoms: C_3  and  N_16 
REMARK    4  A    between atoms: CB_5  and  CG_6 
REMARK    5  A    between atoms: CG_6  and  CD_7 
REMARK    6  A    between atoms: CD_7  and  CE_8 
REMARK    7  A    between atoms: CE_8  and  NZ_9 
REMARK    8  A    between atoms: N_16  and  CA_17 
REMARK    9  A    between atoms: CA_17  and  CB_20 
REMARK   10  A    between atoms: CA_17  and  C_18 
REMARK       I    between atoms: C_18  and  N_24 
REMARK   11  A    between atoms: CB_20  and  OG_21 
REMARK   12  A    between atoms: N_24  and  CA_25 
REMARK   13  A    between atoms: CA_25  and  C_26 
REMARK   14  A    between atoms: CA_25  and  CB_28 
REMARK       I    between atoms: C_26  and  N_33 
REMARK   15  A    between atoms: CB_28  and  CG_29 
REMARK   16  A    between atoms: N_33  and  CA_34 
REMARK   17  A    between atoms: CA_34  and  CB_37 
REMARK   18  A    between atoms: CA_34  and  C_35 
REMARK       I    between atoms: C_35  and  N_50 
REMARK   19  A    between atoms: CB_37  and  CG_38 
REMARK   20  A    between atoms: CG_38  and  CD_39 
REMARK   21  A    between atoms: CD_39  and  NE_40 
REMARK       I    between atoms: NE_40  and  CZ_41 
REMARK       I    between atoms: CZ_41  and  NH1_42 
REMARK       I    between atoms: CZ_41  and  NH2_43 
REMARK   22  A    between atoms: CA_51  and  C_52 
REMARK       I    between atoms: C_52  and  N_57 
REMARK   23  A    between atoms: N_57  and  CA_58 
REMARK   24  A    between atoms: CA_58  and  CB_61 
REMARK   25  A    between atoms: CA_58  and  C_59 
REMARK       I    between atoms: C_59  and  N_74 
REMARK   26  A    between atoms: CB_61  and  CG_62 
REMARK   27  A    between atoms: CG_62  and  CD_63 
REMARK   28  A    between atoms: CD_63  and  NE_64 
REMARK       I    between atoms: NE_64  and  CZ_65 
REMARK       I    between atoms: CZ_65  and  NH2_67 
REMARK       I    between atoms: CZ_65  and  NH1_66 
REMARK   29  A    between atoms: N_74  and  CA_75 
REMARK   30  A    between atoms: CA_75  and  CB_78 
REMARK   31  A    between atoms: CA_75  and  C_76 
REMARK       I    between atoms: C_76  and  N_82 
REMARK   32  A    between atoms: CB_78  and  SG_79 
REMARK   33  A    between atoms: N_82  and  CA_83 
REMARK   34  A    between atoms: CA_83  and  CB_86 
REMARK   35  A    between atoms: CA_83  and  C_84 
REMARK       I    between atoms: C_84  and  N_98 
REMARK   36  A    between atoms: CB_86  and  CG_87 
REMARK   37  A    between atoms: N_98  and  CA_99 
REMARK   38  A    between atoms: CA_99  and  CB_102 
REMARK   39  A    between atoms: CA_99  and  C_100 
REMARK       I    between atoms: C_100  and  N_107 
REMARK   40  A    between atoms: CB_102  and  CG1_103 
REMARK   41  A    between atoms: N_107  and  CA_108 
REMARK   42  A    between atoms: CA_108  and  C_109 
REMARK   43  A    between atoms: CA_108  and  CB_111 
REMARK       I    between atoms: C_109  and  N_120 
REMARK   44  A    between atoms: CB_111  and  CG_112 
REMARK   45  A    between atoms: CG_112  and  CD_113 
REMARK   46  A    between atoms: CD_113  and  CE_114 
REMARK   47  A    between atoms: CE_114  and  NZ_115 
REMARK   48  A    between atoms: N_120  and  CA_121 
REMARK   49  A    between atoms: CA_121  and  C_122 
REMARK   50  A    between atoms: CA_121  and  CB_124 
REMARK       I    between atoms: C_122  and  N_129 
REMARK   51  A    between atoms: CB_124  and  CG1_125 
REMARK   52  A    between atoms: N_129  and  CA_130 
REMARK   53  A    between atoms: CA_130  and  C_131 
REMARK   54  A    between atoms: CA_130  and  CB_133 
REMARK       I    between atoms: C_131  and  N_142 
REMARK   55  A    between atoms: CB_133  and  CG_134 
REMARK   56  A    between atoms: CG_134  and  CD_135 
REMARK   57  A    between atoms: CD_135  and  CE_136 
REMARK   58  A    between atoms: CE_136  and  NZ_137 
REMARK   59  A    between atoms: N_142  and  CA_143 
REMARK   60  A    between atoms: CA_143  and  CB_146 
REMARK   61  A    between atoms: CA_143  and  C_144 
REMARK       I    between atoms: C_144  and  N_154 
REMARK   62  A    between atoms: CB_146  and  CG_147 
REMARK   63  A    between atoms: N_154  and  CA_155 
REMARK   64  A    between atoms: CA_155  and  CB_158 
REMARK   65  A    between atoms: CA_155  and  C_156 
REMARK       I    between atoms: C_156  and  N_171 
REMARK   66  A    between atoms: CB_158  and  CG_159 
REMARK   67  A    between atoms: CG_159  and  CD_160 
REMARK   68  A    between atoms: CD_160  and  NE_161 
REMARK       I    between atoms: NE_161  and  CZ_162 
REMARK       I    between atoms: CZ_162  and  NH1_163 
REMARK   69  A    between atoms: N_171  and  CA_172 
REMARK   70  A    between atoms: CA_172  and  C_173 
REMARK   71  A    between atoms: CA_172  and  CB_175 
REMARK       I    between atoms: C_173  and  N_179 
REMARK   72  A    between atoms: CB_175  and  SG_176 
REMARK   73  A    between atoms: N_179  and  CA_180 
REMARK   74  A    between atoms: CA_180  and  C_181 
REMARK   75  A    between atoms: CA_180  and  CB_183 
REMARK       I    between atoms: C_181  and  N_192 
REMARK   76  A    between atoms: CB_183  and  CG_184 
REMARK   77  A    between atoms: CG_184  and  CD_185 
REMARK   78  A    between atoms: CD_185  and  CE_186 
REMARK   79  A    between atoms: CE_186  and  NZ_187 
REMARK   80  A    between atoms: N_192  and  CA_193 
REMARK   81  A    between atoms: CA_193  and  C_194 
REMARK   82  A    between atoms: CA_193  and  CB_196 
REMARK       I    between atoms: C_194  and  N_200 
REMARK   83  A    between atoms: CB_196  and  OG_197 
REMARK   84  A    between atoms: N_200  and  CA_201 
REMARK   85  A    between atoms: CA_201  and  C_202 
REMARK   86  A    between atoms: CA_201  and  CB_204 
REMARK       I    between atoms: C_202  and  N_209 
REMARK   87  A    between atoms: CB_204  and  CG_205 
REMARK   88  A    between atoms: N_209  and  CA_210 
REMARK   89  A    between atoms: CA_210  and  C_211 
REMARK   90  A    between atoms: CA_210  and  CB_213 
REMARK       I    between atoms: C_211  and  N_222 
REMARK   91  A    between atoms: CB_213  and  CG_214 
REMARK   92  A    between atoms: CG_214  and  CD_215 
REMARK   93  A    between atoms: CD_215  and  CE_216 
REMARK   94  A    between atoms: CE_216  and  NZ_217 
REMARK   95  A    between atoms: N_222  and  CA_223 
REMARK   96  A    between atoms: CA_223  and  CB_226 
REMARK   97  A    between atoms: CA_223  and  C_224 
REMARK   98  A    between atoms: CB_226  and  CG_227 
ROOT
ATOM      1  N   LYS     1      70.476  43.101  39.936  1.00  0.00    -0.058 N 
ATOM      2  H1  LYS     1      70.501  43.444  40.877  1.00 99.99     0.276 HD
ATOM      3  H2  LYS     1      71.248  43.469  39.455  1.00 99.99     0.276 HD
ATOM      4  H3  LYS     1      69.678  43.458  39.482  1.00 99.99     0.276 HD
ENDROOT
BRANCH   1   5
ATOM      5  CA  LYS     1      70.506  41.618  40.008  1.00  0.00     0.255 C 
BRANCH   5   6
ATOM      6  CB  LYS     1      71.276  41.137  41.255  1.00  0.00     0.040 C 
BRANCH   6   7
ATOM      7  CG  LYS     1      70.393  40.884  42.492  1.00  0.00     0.004 C 
BRANCH   7   8
ATOM      8  CD  LYS     1      70.245  42.140  43.361  1.00  0.00     0.032 C 
BRANCH   8   9
ATOM      9  CE  LYS     1      71.525  42.448  44.148  1.00  0.00     0.206 C 
BRANCH   9  10
ATOM     10  NZ  LYS     1      71.384  43.652  44.985  1.00  0.00    -0.064 N 
ATOM     11  HZ1 LYS     1      70.725  43.477  45.719  1.00 99.99     0.275 HD
ATOM     12  HZ2 LYS     1      72.267  43.889  45.389  1.00 99.99     0.275 HD
ATOM     13  HZ3 LYS     1      71.056  44.416  44.428  1.00 99.99     0.275 HD
ENDBRANCH   9  10
ENDBRANCH   8   9
ENDBRANCH   7   8
ENDBRANCH   6   7
ENDBRANCH   5   6
BRANCH   5  14
ATOM     14  C   LYS     1      69.045  41.142  40.081  1.00  0.00     0.259 C 
ATOM     15  N   SER     2      68.799  39.962  39.528  1.00  0.00    -0.336 N 
ATOM     16  H   SER     2      69.508  39.392  39.115  1.00 99.99     0.164 HD
ATOM     17  O   LYS     1      68.158  41.897  40.482  1.00  0.00    -0.271 OA
BRANCH  15  18
ATOM     18  CA  SER     2      67.447  39.376  39.475  1.00  0.00     0.189 C 
BRANCH  18  19
ATOM     19  CB  SER     2      66.645  39.819  40.714  1.00  0.00     0.169 C 
BRANCH  19  20
ATOM     20  OG  SER     2      65.232  39.573  40.564  1.00  0.00    -0.380 OA
ATOM     21  HG  SER     2      64.707  39.728  41.403  1.00 99.99     0.211 HD
ENDBRANCH  19  20
ENDBRANCH  18  19
BRANCH  18  22
ATOM     22  C   SER     2      66.793  39.886  38.179  1.00  0.00     0.253 C 
ATOM     23  O   SER     2      67.372  40.713  37.475  1.00  0.00    -0.270 OA
ATOM     24  N   LEU     3      65.718  39.235  37.734  1.00  0.00    -0.337 N 
ATOM     25  H   LEU     3      65.491  38.306  38.009  1.00 99.99     0.164 HD
BRANCH  24  26
ATOM     26  CA  LEU     3      64.930  39.806  36.623  1.00  0.00     0.159 C 
BRANCH  26  27
ATOM     27  C   LEU     3      63.590  40.387  37.122  1.00  0.00     0.251 C 
ATOM     28  O   LEU     3      62.512  40.020  36.650  1.00  0.00    -0.271 OA
ATOM     29  N   ARG     4      63.669  41.228  38.148  1.00  0.00    -0.338 N 
ATOM     30  H   ARG     4      64.540  41.411  38.599  1.00 99.99     0.164 HD
BRANCH  29  31
ATOM     31  CA  ARG     4      62.512  41.971  38.677  1.00  0.00     0.160 C 
BRANCH  31  32
ATOM     32  CB  ARG     4      61.514  42.260  37.548  1.00  0.00     0.034 C 
BRANCH  32  33
ATOM     33  CG  ARG     4      61.471  43.749  37.183  1.00  0.00     0.027 C 
BRANCH  33  34
ATOM     34  CD  ARG     4      60.936  43.985  35.768  1.00  0.00     0.116 C 
BRANCH  34  35
ATOM     35  NE  ARG     4      59.789  43.107  35.477  1.00  0.00    -0.212 N 
ATOM     36  CZ  ARG     4      58.495  43.414  35.611  1.00  0.00     0.666 C 
ATOM     37  NH1 ARG     4      58.096  44.618  36.020  1.00  0.00    -0.235 N 
ATOM     38  NH2 ARG     4      57.567  42.498  35.394  1.00  0.00    -0.235 N 
ATOM     39 2HH1 ARG     4      58.782  45.311  36.224  1.00 99.99     0.174 HD
ATOM     40 1HH1 ARG     4      57.124  44.821  36.109  1.00 99.99     0.174 HD
ATOM     41 1HH2 ARG     4      56.603  42.735  35.499  1.00 99.99     0.174 HD
ATOM     42 2HH2 ARG     4      57.822  41.567  35.135  1.00 99.99     0.174 HD
ATOM     43  HE  ARG     4      60.024  42.207  35.115  1.00 99.99     0.178 HD
ENDBRANCH  34  35
ENDBRANCH  33  34
ENDBRANCH  32  33
ENDBRANCH  31  32
BRANCH  31  44
ATOM     44  C   ARG     4      61.837  41.116  39.766  1.00  0.00     0.254 C 
ATOM     45  N   PRO     5      60.552  40.742  39.616  1.00  0.00    -0.312 N 
ATOM     46  CD  PRO     5      59.707  41.057  38.446  1.00  0.00     0.105 C 
ATOM     47  CA  PRO     5      59.764  39.979  40.621  1.00  0.00     0.163 C 
ATOM     48  CG  PRO     5      58.455  40.198  38.625  1.00  0.00     0.027 C 
ATOM     49  CB  PRO     5      58.313  40.116  40.143  1.00  0.00     0.034 C 
ATOM     50  O   ARG     4      62.557  40.747  40.696  1.00  0.00    -0.270 OA
BRANCH  47  51
ATOM     51  C   PRO     5      60.186  38.519  40.908  1.00  0.00     0.251 C 
ATOM     52  N   ARG     6      60.793  38.365  42.081  1.00  0.00    -0.338 N 
ATOM     53  H   ARG     6      61.070  39.192  42.568  1.00 99.99     0.164 HD
ATOM     54  O   PRO     5      60.147  37.641  40.051  1.00  0.00    -0.271 OA
BRANCH  52  55
ATOM     55  CA  ARG     6      61.129  37.126  42.807  1.00  0.00     0.159 C 
BRANCH  55  56
ATOM     56  CB  ARG     6      62.055  37.422  43.995  1.00  0.00     0.034 C 
BRANCH  56  57
ATOM     57  CG  ARG     6      62.252  38.921  44.242  1.00  0.00     0.027 C 
BRANCH  57  58
ATOM     58  CD  ARG     6      63.737  39.291  44.323  1.00  0.00     0.116 C 
BRANCH  58  59
ATOM     59  NE  ARG     6      63.911  40.659  44.837  1.00  0.00    -0.212 N 
ATOM     60  CZ  ARG     6      64.216  41.752  44.118  1.00  0.00     0.666 C 
ATOM     61  NH2 ARG     6      64.221  42.942  44.697  1.00  0.00    -0.235 N 
ATOM     62  NH1 ARG     6      64.444  41.694  42.814  1.00  0.00    -0.235 N 
ATOM     63 2HH2 ARG     6      63.992  43.046  45.662  1.00 99.99     0.174 HD
ATOM     64 1HH2 ARG     6      64.451  43.749  44.152  1.00 99.99     0.174 HD
ATOM     65 1HH1 ARG     6      64.672  42.523  42.305  1.00 99.99     0.174 HD
ATOM     66 2HH1 ARG     6      64.380  40.814  42.346  1.00 99.99     0.174 HD
ATOM     67  HE  ARG     6      63.780  40.762  45.818  1.00 99.99     0.178 HD
ENDBRANCH  58  59
ENDBRANCH  57  58
ENDBRANCH  56  57
ENDBRANCH  55  56
BRANCH  55  68
ATOM     68  C   ARG     6      59.871  36.403  43.335  1.00  0.00     0.251 C 
ATOM     69  N   CYS     7      59.544  36.596  44.622  1.00  0.00    -0.337 N 
ATOM     70  H   CYS     7      60.034  37.250  45.201  1.00 99.99     0.164 HD
ATOM     71  O   ARG     6      59.261  35.617  42.614  1.00  0.00    -0.271 OA
BRANCH  69  72
ATOM     72  CA  CYS     7      58.423  35.930  45.312  1.00  0.00     0.170 C 
BRANCH  72  73
ATOM     73  CB  CYS     7      58.691  35.904  46.830  1.00  0.00     0.085 C 
BRANCH  73  74
ATOM     74  SG  CYS     7      60.010  34.794  47.451  1.00  0.00    -0.165 SA
ATOM     75  HG  CYS     7      61.015  35.648  47.298  1.00 99.99     0.102 HD
ENDBRANCH  73  74
ENDBRANCH  72  73
BRANCH  72  76
ATOM     76  C   CYS     7      57.100  36.694  45.061  1.00  0.00     0.252 C 
ATOM     77  O   CYS     7      56.987  37.888  45.349  1.00  0.00    -0.271 OA
ATOM     78  N   TRP     8      56.104  36.012  44.500  1.00  0.00    -0.337 N 
ATOM     79  H   TRP     8      56.209  35.082  44.150  1.00 99.99     0.164 HD
BRANCH  78  80
ATOM     80  CA  TRP     8      54.783  36.639  44.259  1.00  0.00     0.164 C 
BRANCH  80  81
ATOM     81  CB  TRP     8      54.142  36.133  42.961  1.00  0.00     0.059 C 
BRANCH  81  82
ATOM     82  CG  TRP     8      54.440  37.017  41.744  1.00  0.00    -0.016 A 
ATOM     83  CD1 TRP     8      54.254  38.325  41.619  1.00  0.00     0.097 A 
ATOM     84  NE1 TRP     8      54.677  38.727  40.417  1.00  0.00    -0.365 N 
ATOM     85  HE1 TRP     8      54.553  39.645  40.049  1.00 99.99     0.165 HD
ATOM     86  CE2 TRP     8      55.146  37.674  39.746  1.00  0.00     0.042 A 
ATOM     87  CZ2 TRP     8      55.686  37.526  38.477  1.00  0.00     0.030 A 
ATOM     88  CD2 TRP     8      54.990  36.564  40.557  1.00  0.00    -0.001 A 
ATOM     89  CH2 TRP     8      56.047  36.259  38.019  1.00  0.00     0.002 A 
ATOM     90  CZ3 TRP     8      55.861  35.148  38.828  1.00  0.00     0.001 A 
ATOM     91  CE3 TRP     8      55.334  35.300  40.104  1.00  0.00     0.014 A 
ENDBRANCH  81  82
ENDBRANCH  80  81
BRANCH  80  92
ATOM     92  C   TRP     8      53.827  36.515  45.449  1.00  0.00     0.251 C 
ATOM     93  O   TRP     8      52.683  36.072  45.353  1.00  0.00    -0.271 OA
ATOM     94  N   ILE     9      54.323  37.029  46.573  1.00  0.00    -0.338 N 
ATOM     95  H   ILE     9      55.202  37.504  46.578  1.00 99.99     0.164 HD
BRANCH  94  96
ATOM     96  CA  ILE     9      53.654  36.935  47.885  1.00  0.00     0.159 C 
BRANCH  96  97
ATOM     97  CB  ILE     9      53.943  35.551  48.517  1.00  0.00     0.029 C 
ATOM     98  CG2 ILE     9      55.318  35.028  48.071  1.00  0.00     0.002 C 
BRANCH  97  99
ATOM     99  CG1 ILE     9      53.878  35.632  50.056  1.00  0.00     0.002 C 
ATOM    100  CD  ILE     9      55.075  35.006  50.784  1.00  0.00     0.000 C 
ENDBRANCH  97  99
ENDBRANCH  96  97
BRANCH  96 101
ATOM    101  C   ILE     9      54.038  38.119  48.799  1.00  0.00     0.251 C 
ATOM    102  N   LYS    10      52.999  38.835  49.236  1.00  0.00    -0.338 N 
ATOM    103  H   LYS    10      52.092  38.674  48.842  1.00 99.99     0.164 HD
ATOM    104  O   ILE     9      55.211  38.465  48.923  1.00  0.00    -0.271 OA
BRANCH 102 105
ATOM    105  CA  LYS    10      53.028  39.914  50.252  1.00  0.00     0.159 C 
BRANCH 105 106
ATOM    106  C   LYS    10      53.956  41.119  49.941  1.00  0.00     0.251 C 
ATOM    107  O   LYS    10      53.615  42.040  49.201  1.00  0.00    -0.271 OA
ATOM    108  N   ILE    11      55.193  41.052  50.437  1.00  0.00    -0.338 N 
ATOM    109  H   ILE    11      55.501  40.270  50.974  1.00 99.99     0.164 HD
BRANCH 108 110
ATOM    110  CA  ILE    11      56.198  42.123  50.236  1.00  0.00     0.159 C 
BRANCH 110 111
ATOM    111  C   ILE    11      57.192  41.837  49.092  1.00  0.00     0.251 C 
ATOM    112  N   LYS    12      57.685  42.910  48.468  1.00  0.00    -0.338 N 
ATOM    113  H   LYS    12      57.301  43.820  48.617  1.00 99.99     0.164 HD
ATOM    114  O   ILE    11      57.513  40.684  48.810  1.00  0.00    -0.271 OA
BRANCH 112 115
ATOM    115  CA  LYS    12      58.746  42.833  47.437  1.00  0.00     0.159 C 
BRANCH 115 116
ATOM    116  C   LYS    12      60.158  43.020  48.029  1.00  0.00     0.251 C 
ATOM    117  O   LYS    12      60.964  43.827  47.570  1.00  0.00    -0.271 OA
ATOM    118  N   PHE    13      60.449  42.240  49.072  1.00  0.00    -0.337 N 
ATOM    119  H   PHE    13      59.869  41.471  49.332  1.00 99.99     0.164 HD
BRANCH 118 120
ATOM    120  CA  PHE    13      61.726  42.349  49.810  1.00  0.00     0.164 C 
BRANCH 120 121
ATOM    121  CB  PHE    13      61.805  43.672  50.589  1.00  0.00     0.056 C 
BRANCH 121 122
ATOM    122  CG  PHE    13      62.842  44.664  50.055  1.00  0.00    -0.044 A 
ATOM    123  CD1 PHE    13      62.506  46.005  49.904  1.00  0.00     0.008 A 
ATOM    124  CE1 PHE    13      63.432  46.902  49.397  1.00  0.00     0.001 A 
ATOM    125  CZ  PHE    13      64.705  46.463  49.035  1.00  0.00     0.000 A 
ATOM    126  CE2 PHE    13      65.043  45.123  49.202  1.00  0.00     0.001 A 
ATOM    127  CD2 PHE    13      64.115  44.226  49.704  1.00  0.00     0.008 A 
ENDBRANCH 121 122
ENDBRANCH 120 121
BRANCH 120 128
ATOM    128  C   PHE    13      62.019  41.148  50.726  1.00  0.00     0.251 C 
ATOM    129  N   ARG    14      61.779  39.958  50.176  1.00  0.00    -0.338 N 
ATOM    130  H   ARG    14      61.203  39.882  49.367  1.00 99.99     0.164 HD
ATOM    131  O   PHE    13      62.381  41.304  51.888  1.00  0.00    -0.271 OA
BRANCH 129 132
ATOM    132  CA  ARG    14      62.130  38.690  50.849  1.00  0.00     0.159 C 
BRANCH 132 133
ATOM    133  CB  ARG    14      61.146  37.565  50.484  1.00  0.00     0.034 C 
BRANCH 133 134
ATOM    134  CG  ARG    14      60.646  36.788  51.711  1.00  0.00     0.027 C 
BRANCH 134 135
ATOM    135  CD  ARG    14      59.265  36.163  51.472  1.00  0.00     0.116 C 
BRANCH 135 136
ATOM    136  NE  ARG    14      58.243  36.844  52.280  1.00  0.00    -0.212 N 
ATOM    137  CZ  ARG    14      57.484  37.883  51.898  1.00  0.00     0.666 C 
ATOM    138  NH1 ARG    14      57.532  38.381  50.672  1.00  0.00    -0.235 N 
ATOM    139  NH2 ARG    14      56.697  38.482  52.776  1.00  0.00    -0.235 N 
ATOM    140 2HH1 ARG    14      58.128  37.954  49.986  1.00 99.99     0.174 HD
ATOM    141 1HH1 ARG    14      56.959  39.155  50.412  1.00 99.99     0.174 HD
ATOM    142 2HH2 ARG    14      56.658  38.170  53.722  1.00 99.99     0.174 HD
ATOM    143 1HH2 ARG    14      56.141  39.258  52.481  1.00 99.99     0.174 HD
ATOM    144  HE  ARG    14      58.121  36.482  53.200  1.00 99.99     0.178 HD
ENDBRANCH 135 136
ENDBRANCH 134 135
ENDBRANCH 133 134
ENDBRANCH 132 133
BRANCH 132 145
ATOM    145  C   ARG    14      63.586  38.216  50.686  1.00  0.00     0.251 C 
ATOM    146  N   CYS    15      64.545  39.020  51.148  1.00  0.00    -0.337 N 
ATOM    147  H   CYS    15      64.343  39.839  51.676  1.00 99.99     0.164 HD
ATOM    148  O   ARG    14      63.825  37.122  50.184  1.00  0.00    -0.271 OA
BRANCH 146 149
ATOM    149  CA  CYS    15      65.986  38.720  51.014  1.00  0.00     0.170 C 
BRANCH 149 150
ATOM    150  C   CYS    15      66.832  39.103  52.241  1.00  0.00     0.252 C 
ATOM    151  N   LYS    16      66.149  39.121  53.386  1.00  0.00    -0.337 N 
ATOM    152  H   LYS    16      65.164  38.972  53.407  1.00 99.99     0.164 HD
ATOM    153  O   CYS    15      68.058  39.139  52.184  1.00  0.00    -0.271 OA
BRANCH 151 154
ATOM    154  CA  LYS    16      66.757  39.431  54.697  1.00  0.00     0.159 C 
BRANCH 154 155
ATOM    155  C   LYS    16      65.941  38.896  55.890  1.00  0.00     0.251 C 
ATOM    156  N   SER    17      66.483  39.117  57.090  1.00  0.00    -0.336 N 
ATOM    157  H   SER    17      67.358  39.594  57.180  1.00 99.99     0.164 HD
ATOM    158  O   LYS    16      64.900  38.252  55.741  1.00  0.00    -0.271 OA
BRANCH 156 159
ATOM    159  CA  SER    17      65.833  38.747  58.362  1.00  0.00     0.189 C 
BRANCH 159 160
ATOM    160  C   SER    17      64.561  39.572  58.608  1.00  0.00     0.253 C 
ATOM    161  O   SER    17      64.665  40.745  58.950  1.00  0.00    -0.270 OA
ATOM    162  N   LEU    18      63.399  38.911  58.614  1.00  0.00    -0.337 N 
ATOM    163  H   LEU    18      63.395  37.920  58.464  1.00 99.99     0.164 HD
BRANCH 162 164
ATOM    164  CA  LEU    18      62.077  39.531  58.802  1.00  0.00     0.159 C 
BRANCH 164 165
ATOM    165  C   LEU    18      61.461  40.092  57.514  1.00  0.00     0.251 C 
ATOM    166  O   LEU    18      62.036  40.931  56.829  1.00  0.00    -0.271 OA
ATOM    167  N   LYS    19      60.316  39.494  57.193  1.00  0.00    -0.338 N 
ATOM    168  H   LYS    19      59.958  38.739  57.737  1.00 99.99     0.164 HD
BRANCH 167 169
ATOM    169  CA  LYS    19      59.445  39.884  56.074  1.00  0.00     0.159 C 
BRANCH 169 170
ATOM    170  C   LYS    19      57.992  39.862  56.548  1.00  0.00     0.251 C 
ATOM    171  N   PHE    20      57.839  39.950  57.862  1.00  0.00    -0.336 N 
ATOM    172  H   PHE    20      58.624  39.957  58.481  1.00 99.99     0.164 HD
ATOM    173  O   LYS    19      57.063  39.719  55.750  1.00  0.00    -0.271 OA
BRANCH 171 174
ATOM    174  CA  PHE    20      56.521  40.077  58.511  1.00  0.00     0.172 C 
BRANCH 174 175
ATOM    175  CB  PHE    20      56.564  39.502  59.933  1.00  0.00     0.058 C 
BRANCH 175 176
ATOM    176  CG  PHE    20      55.914  38.115  60.044  1.00  0.00    -0.044 A 
ATOM    177  CD2 PHE    20      56.416  37.172  60.930  1.00  0.00     0.008 A 
ATOM    178  CE2 PHE    20      55.851  35.903  60.997  1.00  0.00     0.001 A 
ATOM    179  CZ  PHE    20      54.780  35.570  60.173  1.00  0.00     0.000 A 
ATOM    180  CE1 PHE    20      54.264  36.523  59.298  1.00  0.00     0.001 A 
ATOM    181  CD1 PHE    20      54.832  37.790  59.235  1.00  0.00     0.008 A 
ENDBRANCH 175 176
ENDBRANCH 174 175
BRANCH 174 182
ATOM    182  C   PHE    20      56.119  41.560  58.541  1.00  0.00     0.207 C 
ATOM    183  OXT PHE    20      57.025  42.386  58.773  1.00 99.99    -0.646 OA
ATOM    184  O   PHE    20      55.041  41.862  58.009  1.00 99.99    -0.646 OA
ENDBRANCH 174 182
ENDBRANCH 171 174
ENDBRANCH 169 170
BRANCH 169 185
ATOM    185  CB  LYS    19      59.590  38.899  54.905  1.00  0.00     0.032 C 
BRANCH 185 186
ATOM    186  CG  LYS    19      60.061  37.508  55.336  1.00  0.00     0.004 C 
BRANCH 186 187
ATOM    187  CD  LYS    19      58.889  36.582  55.684  1.00  0.00     0.032 C 
BRANCH 187 188
ATOM    188  CE  LYS    19      59.015  36.037  57.108  1.00  0.00     0.206 C 
BRANCH 188 189
ATOM    189  NZ  LYS    19      59.287  34.592  57.084  1.00  0.00    -0.064 N 
ATOM    190  HZ3 LYS    19      58.584  34.119  56.547  1.00 99.99     0.275 HD
ATOM    191  HZ1 LYS    19      60.184  34.408  56.687  1.00 99.99     0.275 HD
ATOM    192  HZ2 LYS    19      59.246  34.226  58.017  1.00 99.99     0.275 HD
ENDBRANCH 188 189
ENDBRANCH 187 188
ENDBRANCH 186 187
ENDBRANCH 185 186
ENDBRANCH 169 185
ENDBRANCH 167 169
ENDBRANCH 164 165
BRANCH 164 193
ATOM    193  CB  LEU    18      62.167  40.652  59.848  1.00  0.00     0.032 C 
BRANCH 193 194
ATOM    194  CG  LEU    18      60.971  40.688  60.807  1.00  0.00     0.002 C 
ATOM    195  CD1 LEU    18      59.969  41.742  60.333  1.00  0.00     0.000 C 
ATOM    196  CD2 LEU    18      60.274  39.324  60.885  1.00  0.00     0.000 C 
ENDBRANCH 193 194
ENDBRANCH 164 193
ENDBRANCH 162 164
ENDBRANCH 159 160
BRANCH 159 197
ATOM    197  CB  SER    17      66.823  38.792  59.540  1.00  0.00     0.169 C 
BRANCH 197 198
ATOM    198  OG  SER    17      67.773  37.721  59.495  1.00  0.00    -0.380 OA
ATOM    199  HG  SER    17      67.527  37.157  58.704  1.00 99.99     0.211 HD
ENDBRANCH 197 198
ENDBRANCH 159 197
ENDBRANCH 156 159
ENDBRANCH 154 155
BRANCH 154 200
ATOM    200  CB  LYS    16      66.994  40.945  54.817  1.00  0.00     0.032 C 
BRANCH 200 201
ATOM    201  CG  LYS    16      68.462  41.324  55.020  1.00  0.00     0.004 C 
BRANCH 201 202
ATOM    202  CD  LYS    16      68.537  42.677  55.731  1.00  0.00     0.032 C 
BRANCH 202 203
ATOM    203  CE  LYS    16      67.736  42.688  57.033  1.00  0.00     0.206 C 
BRANCH 203 204
ATOM    204  NZ  LYS    16      68.626  42.496  58.188  1.00  0.00    -0.064 N 
ATOM    205  HZ1 LYS    16      68.258  41.779  58.779  1.00 99.99     0.275 HD
ATOM    206  HZ2 LYS    16      69.536  42.229  57.868  1.00 99.99     0.275 HD
ATOM    207  HZ3 LYS    16      68.693  43.350  58.704  1.00 99.99     0.275 HD
ENDBRANCH 203 204
ENDBRANCH 202 203
ENDBRANCH 201 202
ENDBRANCH 200 201
ENDBRANCH 154 200
ENDBRANCH 151 154
ENDBRANCH 149 150
BRANCH 149 208
ATOM    208  CB  CYS    15      66.532  39.387  49.747  1.00  0.00     0.085 C 
BRANCH 208 209
ATOM    209  SG  CYS    15      65.365  40.541  48.932  1.00  0.00    -0.165 SA
ATOM    210  HG  CYS    15      65.248  41.366  49.967  1.00 99.99     0.102 HD
ENDBRANCH 208 209
ENDBRANCH 149 208
ENDBRANCH 146 149
ENDBRANCH 132 145
ENDBRANCH 129 132
ENDBRANCH 120 128
ENDBRANCH 118 120
ENDBRANCH 115 116
BRANCH 115 211
ATOM    211  CB  LYS    12      58.497  43.853  46.311  1.00  0.00     0.032 C 
BRANCH 211 212
ATOM    212  CG  LYS    12      58.390  43.237  44.914  1.00  0.00     0.004 C 
BRANCH 212 213
ATOM    213  CD  LYS    12      59.705  42.537  44.559  1.00  0.00     0.032 C 
BRANCH 213 214
ATOM    214  CE  LYS    12      59.464  41.200  43.854  1.00  0.00     0.206 C 
BRANCH 214 215
ATOM    215  NZ  LYS    12      58.761  40.257  44.738  1.00  0.00    -0.064 N 
ATOM    216  HZ3 LYS    12      57.780  40.451  44.721  1.00 99.99     0.275 HD
ATOM    217  HZ2 LYS    12      59.105  40.355  45.672  1.00 99.99     0.275 HD
ATOM    218  HZ1 LYS    12      58.920  39.322  44.422  1.00 99.99     0.275 HD
ENDBRANCH 214 215
ENDBRANCH 213 214
ENDBRANCH 212 213
ENDBRANCH 211 212
ENDBRANCH 115 211
ENDBRANCH 112 115
ENDBRANCH 110 111
BRANCH 110 219
ATOM    219  CB  ILE    11      56.942  42.471  51.543  1.00  0.00     0.029 C 
ATOM    220  CG2 ILE    11      56.006  42.236  52.738  1.00  0.00     0.002 C 
BRANCH 219 221
ATOM    221  CG1 ILE    11      58.284  41.729  51.690  1.00  0.00     0.002 C 
ATOM    222  CD  ILE    11      59.142  42.250  52.852  1.00  0.00     0.000 C 
ENDBRANCH 219 221
ENDBRANCH 110 219
ENDBRANCH 108 110
ENDBRANCH 105 106
BRANCH 105 223
ATOM    223  CB  LYS    10      53.305  39.269  51.624  1.00  0.00     0.032 C 
BRANCH 223 224
ATOM    224  CG  LYS    10      52.048  39.125  52.488  1.00  0.00     0.004 C 
BRANCH 224 225
ATOM    225  CD  LYS    10      51.272  37.856  52.136  1.00  0.00     0.032 C 
BRANCH 225 226
ATOM    226  CE  LYS    10      51.749  36.683  52.996  1.00  0.00     0.206 C 
BRANCH 226 227
ATOM    227  NZ  LYS    10      51.905  37.085  54.400  1.00  0.00    -0.064 N 
ATOM    228  HZ2 LYS    10      51.029  37.422  54.747  1.00 99.99     0.275 HD
ATOM    229  HZ3 LYS    10      52.199  36.298  54.943  1.00 99.99     0.275 HD
ATOM    230  HZ1 LYS    10      52.591  37.809  54.463  1.00 99.99     0.275 HD
ENDBRANCH 226 227
ENDBRANCH 225 226
ENDBRANCH 224 225
ENDBRANCH 223 224
ENDBRANCH 105 223
ENDBRANCH 102 105
ENDBRANCH  96 101
ENDBRANCH  94  96
ENDBRANCH  80  92
ENDBRANCH  78  80
ENDBRANCH  72  76
ENDBRANCH  69  72
ENDBRANCH  55  68
ENDBRANCH  52  55
ENDBRANCH  47  51
ENDBRANCH  31  44
ENDBRANCH  29  31
ENDBRANCH  26  27
BRANCH  26 231
ATOM    231  CB  LEU     3      64.773  38.772  35.492  1.00  0.00     0.032 C 
BRANCH 231 232
ATOM    232  CG  LEU     3      66.045  38.609  34.648  1.00  0.00     0.002 C 
ATOM    233  CD2 LEU     3      66.416  39.912  33.931  1.00  0.00     0.000 C 
ATOM    234  CD1 LEU     3      65.845  37.499  33.616  1.00  0.00     0.000 C 
ENDBRANCH 231 232
ENDBRANCH  26 231
ENDBRANCH  24  26
ENDBRANCH  18  22
ENDBRANCH  15  18
ENDBRANCH   5  14
ENDBRANCH   1   5
TORSDOF 98
ENDMDL
