MODEL 1
REMARK VINA RESULT:      -4.9      0.000      0.000
REMARK WARNING: 32 MAX_TORS EXCEEDED!!!
REMARK  34 active torsions:
REMARK  status: ('A' for Active; 'I' for Inactive)
REMARK    1  A    between atoms: N_1  and  CA_2 
REMARK    2  A    between atoms: CA_2  and  CB_5 
REMARK    3  A    between atoms: CA_2  and  C_3 
REMARK       I    between atoms: C_3  and  N_16 
REMARK    4  A    between atoms: CB_5  and  CG_6 
REMARK    5  A    between atoms: CG_6  and  CD_7 
REMARK    6  A    between atoms: CD_7  and  CE_8 
REMARK    7  A    between atoms: CE_8  and  NZ_9 
REMARK    8  A    between atoms: N_16  and  CA_17 
REMARK    9  A    between atoms: CA_17  and  CB_20 
REMARK   10  A    between atoms: CA_17  and  C_18 
REMARK       I    between atoms: C_18  and  N_29 
REMARK   11  A    between atoms: CB_20  and  CG_21 
REMARK   12  A    between atoms: CG_21  and  CD_22 
REMARK   13  A    between atoms: CD_22  and  CE_23 
REMARK   14  A    between atoms: CE_23  and  NZ_24 
REMARK   15  A    between atoms: N_29  and  CA_30 
REMARK   16  A    between atoms: CA_30  and  C_31 
REMARK   17  A    between atoms: CA_30  and  CB_33 
REMARK       I    between atoms: C_31  and  N_42 
REMARK   18  A    between atoms: CB_33  and  CG_34 
REMARK   19  A    between atoms: CG_34  and  CD_35 
REMARK   20  A    between atoms: CD_35  and  CE_36 
REMARK   21  A    between atoms: CE_36  and  NZ_37 
REMARK   22  A    between atoms: N_42  and  CA_43 
REMARK   23  A    between atoms: CA_43  and  C_44 
REMARK   24  A    between atoms: CA_43  and  CB_46 
REMARK       I    between atoms: C_44  and  N_51 
REMARK   25  A    between atoms: CB_46  and  CG_47 
REMARK   26  A    between atoms: N_51  and  CA_52 
REMARK   27  A    between atoms: CA_52  and  C_53 
REMARK       I    between atoms: C_53  and  N_57 
REMARK   28  A    between atoms: N_57  and  CA_58 
REMARK   29  A    between atoms: CA_58  and  C_59 
REMARK   30  A    between atoms: CA_58  and  CB_61 
REMARK       I    between atoms: C_59  and  N_71 
REMARK   31  A    between atoms: CB_61  and  CG_62 
REMARK   32  A    between atoms: CZ_67  and  OH_68 
REMARK   33  A    between atoms: N_71  and  CA_72 
REMARK   34  A    between atoms: CA_72  and  C_73 
ROOT
ATOM      1  N   LYS     1      59.019  43.975  47.037  1.00  0.00    -0.058 N 
ATOM      2  H1  LYS     1      59.004  44.269  47.993  1.00 99.99     0.276 HD
ATOM      3  H2  LYS     1      59.688  43.268  46.922  1.00 99.99     0.276 HD
ATOM      4  H3  LYS     1      59.344  44.736  46.487  1.00 99.99     0.276 HD
ENDROOT
BRANCH   1   5
ATOM      5  CA  LYS     1      57.651  43.556  46.650  1.00  0.00     0.255 C 
BRANCH   5   6
ATOM      6  CB  LYS     1      57.623  42.134  46.046  1.00  0.00     0.040 C 
BRANCH   6   7
ATOM      7  CG  LYS     1      58.792  41.909  45.072  1.00  0.00     0.004 C 
BRANCH   7   8
ATOM      8  CD  LYS     1      58.753  40.554  44.344  1.00  0.00     0.032 C 
BRANCH   8   9
ATOM      9  CE  LYS     1      58.567  40.752  42.833  1.00  0.00     0.206 C 
BRANCH   9  10
ATOM     10  NZ  LYS     1      57.302  40.201  42.313  1.00  0.00    -0.064 N 
ATOM     11  HZ3 LYS     1      56.539  40.800  42.554  1.00 99.99     0.275 HD
ATOM     12  HZ1 LYS     1      57.355  40.132  41.316  1.00 99.99     0.275 HD
ATOM     13  HZ2 LYS     1      57.143  39.288  42.690  1.00 99.99     0.275 HD
ENDBRANCH   9  10
ENDBRANCH   8   9
ENDBRANCH   7   8
ENDBRANCH   6   7
ENDBRANCH   5   6
BRANCH   5  14
ATOM     14  C   LYS     1      56.717  43.794  47.865  1.00  0.00     0.259 C 
ATOM     15  N   LYS     2      56.601  42.867  48.831  1.00  0.00    -0.338 N 
ATOM     16  H   LYS     2      57.128  42.018  48.796  1.00 99.99     0.164 HD
ATOM     17  O   LYS     1      56.399  44.966  48.052  1.00  0.00    -0.271 OA
BRANCH  15  18
ATOM     18  CA  LYS     2      55.693  42.950  50.010  1.00  0.00     0.159 C 
BRANCH  18  19
ATOM     19  CB  LYS     2      54.285  42.414  49.704  1.00  0.00     0.032 C 
BRANCH  19  20
ATOM     20  CG  LYS     2      54.237  40.882  49.803  1.00  0.00     0.004 C 
BRANCH  20  21
ATOM     21  CD  LYS     2      53.249  40.256  48.812  1.00  0.00     0.032 C 
BRANCH  21  22
ATOM     22  CE  LYS     2      52.046  39.653  49.547  1.00  0.00     0.206 C 
BRANCH  22  23
ATOM     23  NZ  LYS     2      51.677  40.421  50.749  1.00  0.00    -0.064 N 
ATOM     24  HZ1 LYS     2      50.855  40.023  51.158  1.00 99.99     0.275 HD
ATOM     25  HZ2 LYS     2      52.421  40.394  51.416  1.00 99.99     0.275 HD
ATOM     26  HZ3 LYS     2      51.485  41.370  50.498  1.00 99.99     0.275 HD
ENDBRANCH  22  23
ENDBRANCH  21  22
ENDBRANCH  20  21
ENDBRANCH  19  20
ENDBRANCH  18  19
BRANCH  18  27
ATOM     27  C   LYS     2      56.226  42.466  51.379  1.00  0.00     0.251 C 
ATOM     28  O   LYS     2      55.732  42.943  52.398  1.00  0.00    -0.271 OA
ATOM     29  N   LYS     3      57.320  41.693  51.401  1.00  0.00    -0.338 N 
ATOM     30  H   LYS     3      57.706  41.327  50.557  1.00 99.99     0.164 HD
BRANCH  29  31
ATOM     31  CA  LYS     3      58.026  41.254  52.633  1.00  0.00     0.159 C 
BRANCH  31  32
ATOM     32  C   LYS     3      59.268  42.102  53.010  1.00  0.00     0.251 C 
ATOM     33  O   LYS     3      59.112  43.259  53.398  1.00  0.00    -0.271 OA
ATOM     34  N   LEU     4      60.460  41.626  52.641  1.00  0.00    -0.338 N 
ATOM     35  H   LEU     4      60.530  40.801  52.073  1.00 99.99     0.164 HD
BRANCH  34  36
ATOM     36  CA  LEU     4      61.767  42.280  52.901  1.00  0.00     0.159 C 
BRANCH  36  37
ATOM     37  C   LEU     4      62.057  43.588  52.127  1.00  0.00     0.251 C 
ATOM     38  O   LEU     4      61.792  44.681  52.623  1.00  0.00    -0.271 OA
ATOM     39  N   ALA     5      62.813  43.458  51.041  1.00  0.00    -0.338 N 
ATOM     40  H   ALA     5      63.288  42.597  50.842  1.00 99.99     0.164 HD
BRANCH  39  41
ATOM     41  CA  ALA     5      63.127  44.540  50.085  1.00  0.00     0.159 C 
ATOM     42  CB  ALA     5      64.652  44.658  50.005  1.00  0.00     0.034 C 
BRANCH  41  43
ATOM     43  C   ALA     5      62.512  44.302  48.684  1.00  0.00     0.251 C 
ATOM     44  O   ALA     5      61.399  44.731  48.389  1.00  0.00    -0.271 OA
ATOM     45  N   TYR     6      63.313  43.700  47.804  1.00  0.00    -0.337 N 
ATOM     46  H   TYR     6      64.299  43.646  47.968  1.00 99.99     0.164 HD
BRANCH  45  47
ATOM     47  CA  TYR     6      62.902  43.198  46.473  1.00  0.00     0.164 C 
BRANCH  47  48
ATOM     48  C   TYR     6      62.123  41.868  46.576  1.00  0.00     0.251 C 
ATOM     49  N   ALA     7      61.537  41.649  47.751  1.00  0.00    -0.336 N 
ATOM     50  H   ALA     7      61.615  42.320  48.487  1.00 99.99     0.164 HD
ATOM     51  O   TYR     6      62.220  41.006  45.705  1.00  0.00    -0.271 OA
BRANCH  49  52
ATOM     52  CA  ALA     7      60.690  40.491  48.092  1.00  0.00     0.168 C 
ATOM     53  CB  ALA     7      61.538  39.494  48.888  1.00  0.00     0.036 C 
BRANCH  52  54
ATOM     54  C   ALA     7      59.513  40.961  48.962  1.00  0.00     0.206 C 
ATOM     55  OXT ALA     7      59.663  42.079  49.505  1.00 99.99    -0.646 OA
ATOM     56  O   ALA     7      58.466  40.279  48.952  1.00 99.99    -0.646 OA
ENDBRANCH  52  54
ENDBRANCH  49  52
ENDBRANCH  47  48
BRANCH  47  57
ATOM     57  CB  TYR     6      64.123  42.929  45.584  1.00  0.00     0.056 C 
BRANCH  57  58
ATOM     58  CG  TYR     6      65.520  42.956  46.210  1.00  0.00    -0.044 A 
ATOM     59  CD1 TYR     6      66.360  44.065  46.194  1.00  0.00     0.011 A 
ATOM     60  CE1 TYR     6      67.678  43.945  46.624  1.00  0.00     0.037 A 
ATOM     61  CZ  TYR     6      68.158  42.718  47.066  1.00  0.00     0.065 A 
ATOM     62  CE2 TYR     6      67.317  41.614  47.101  1.00  0.00     0.037 A 
ATOM     63  CD2 TYR     6      66.005  41.739  46.669  1.00  0.00     0.011 A 
BRANCH  61  64
ATOM     64  OH  TYR     6      69.470  42.570  47.387  1.00  0.00    -0.361 OA
ATOM     65  HH  TYR     6      69.792  43.391  47.854  1.00 99.99     0.217 HD
ENDBRANCH  61  64
ENDBRANCH  57  58
ENDBRANCH  47  57
ENDBRANCH  45  47
ENDBRANCH  41  43
ENDBRANCH  39  41
ENDBRANCH  36  37
BRANCH  36  66
ATOM     66  CB  LEU     4      62.892  41.279  52.607  1.00  0.00     0.032 C 
BRANCH  66  67
ATOM     67  CG  LEU     4      63.452  40.545  53.831  1.00  0.00     0.002 C 
ATOM     68  CD1 LEU     4      63.129  41.366  55.080  1.00  0.00     0.000 C 
ATOM     69  CD2 LEU     4      62.859  39.139  53.972  1.00  0.00     0.000 C 
ENDBRANCH  66  67
ENDBRANCH  36  66
ENDBRANCH  34  36
ENDBRANCH  31  32
BRANCH  31  70
ATOM     70  CB  LYS     3      58.398  39.768  52.477  1.00  0.00     0.032 C 
BRANCH  70  71
ATOM     71  CG  LYS     3      57.404  38.827  53.169  1.00  0.00     0.004 C 
BRANCH  71  72
ATOM     72  CD  LYS     3      56.112  38.637  52.371  1.00  0.00     0.032 C 
BRANCH  72  73
ATOM     73  CE  LYS     3      54.900  38.847  53.284  1.00  0.00     0.206 C 
BRANCH  73  74
ATOM     74  NZ  LYS     3      54.616  40.271  53.521  1.00  0.00    -0.064 N 
ATOM     75  HZ3 LYS     3      54.202  40.676  52.705  1.00 99.99     0.275 HD
ATOM     76  HZ2 LYS     3      55.463  40.754  53.744  1.00 99.99     0.275 HD
ATOM     77  HZ1 LYS     3      53.979  40.356  54.289  1.00 99.99     0.275 HD
ENDBRANCH  73  74
ENDBRANCH  72  73
ENDBRANCH  71  72
ENDBRANCH  70  71
ENDBRANCH  31  70
ENDBRANCH  29  31
ENDBRANCH  18  27
ENDBRANCH  15  18
ENDBRANCH   5  14
ENDBRANCH   1   5
TORSDOF 34
ENDMDL
MODEL 2
REMARK VINA RESULT:      -4.8      2.668      6.230
REMARK WARNING: 32 MAX_TORS EXCEEDED!!!
REMARK  34 active torsions:
REMARK  status: ('A' for Active; 'I' for Inactive)
REMARK    1  A    between atoms: N_1  and  CA_2 
REMARK    2  A    between atoms: CA_2  and  CB_5 
REMARK    3  A    between atoms: CA_2  and  C_3 
REMARK       I    between atoms: C_3  and  N_16 
REMARK    4  A    between atoms: CB_5  and  CG_6 
REMARK    5  A    between atoms: CG_6  and  CD_7 
REMARK    6  A    between atoms: CD_7  and  CE_8 
REMARK    7  A    between atoms: CE_8  and  NZ_9 
REMARK    8  A    between atoms: N_16  and  CA_17 
REMARK    9  A    between atoms: CA_17  and  CB_20 
REMARK   10  A    between atoms: CA_17  and  C_18 
REMARK       I    between atoms: C_18  and  N_29 
REMARK   11  A    between atoms: CB_20  and  CG_21 
REMARK   12  A    between atoms: CG_21  and  CD_22 
REMARK   13  A    between atoms: CD_22  and  CE_23 
REMARK   14  A    between atoms: CE_23  and  NZ_24 
REMARK   15  A    between atoms: N_29  and  CA_30 
REMARK   16  A    between atoms: CA_30  and  C_31 
REMARK   17  A    between atoms: CA_30  and  CB_33 
REMARK       I    between atoms: C_31  and  N_42 
REMARK   18  A    between atoms: CB_33  and  CG_34 
REMARK   19  A    between atoms: CG_34  and  CD_35 
REMARK   20  A    between atoms: CD_35  and  CE_36 
REMARK   21  A    between atoms: CE_36  and  NZ_37 
REMARK   22  A    between atoms: N_42  and  CA_43 
REMARK   23  A    between atoms: CA_43  and  C_44 
REMARK   24  A    between atoms: CA_43  and  CB_46 
REMARK       I    between atoms: C_44  and  N_51 
REMARK   25  A    between atoms: CB_46  and  CG_47 
REMARK   26  A    between atoms: N_51  and  CA_52 
REMARK   27  A    between atoms: CA_52  and  C_53 
REMARK       I    between atoms: C_53  and  N_57 
REMARK   28  A    between atoms: N_57  and  CA_58 
REMARK   29  A    between atoms: CA_58  and  C_59 
REMARK   30  A    between atoms: CA_58  and  CB_61 
REMARK       I    between atoms: C_59  and  N_71 
REMARK   31  A    between atoms: CB_61  and  CG_62 
REMARK   32  A    between atoms: CZ_67  and  OH_68 
REMARK   33  A    between atoms: N_71  and  CA_72 
REMARK   34  A    between atoms: CA_72  and  C_73 
ROOT
ATOM      1  N   LYS     1      55.470  43.815  49.026  1.00  0.00    -0.058 N 
ATOM      2  H1  LYS     1      56.071  44.487  49.460  1.00 99.99     0.276 HD
ATOM      3  H2  LYS     1      55.935  43.403  48.267  1.00 99.99     0.276 HD
ATOM      4  H3  LYS     1      54.701  44.303  48.629  1.00 99.99     0.276 HD
ENDROOT
BRANCH   1   5
ATOM      5  CA  LYS     1      55.038  42.836  50.051  1.00  0.00     0.255 C 
BRANCH   5   6
ATOM      6  CB  LYS     1      54.930  41.403  49.483  1.00  0.00     0.040 C 
BRANCH   6   7
ATOM      7  CG  LYS     1      53.466  40.940  49.386  1.00  0.00     0.004 C 
BRANCH   7   8
ATOM      8  CD  LYS     1      53.263  39.666  48.549  1.00  0.00     0.032 C 
BRANCH   8   9
ATOM      9  CE  LYS     1      54.003  39.773  47.207  1.00  0.00     0.206 C 
BRANCH   9  10
ATOM     10  NZ  LYS     1      53.905  38.559  46.376  1.00  0.00    -0.064 N 
ATOM     11  HZ3 LYS     1      54.518  37.851  46.725  1.00 99.99     0.275 HD
ATOM     12  HZ1 LYS     1      52.965  38.214  46.402  1.00 99.99     0.275 HD
ATOM     13  HZ2 LYS     1      54.143  38.770  45.428  1.00 99.99     0.275 HD
ENDBRANCH   9  10
ENDBRANCH   8   9
ENDBRANCH   7   8
ENDBRANCH   6   7
ENDBRANCH   5   6
BRANCH   5  14
ATOM     14  C   LYS     1      55.954  43.006  51.291  1.00  0.00     0.259 C 
ATOM     15  N   LYS     2      57.155  42.405  51.341  1.00  0.00    -0.338 N 
ATOM     16  H   LYS     2      57.489  41.855  50.575  1.00 99.99     0.164 HD
ATOM     17  O   LYS     1      55.679  43.962  52.010  1.00  0.00    -0.271 OA
BRANCH  15  18
ATOM     18  CA  LYS     2      58.096  42.439  52.497  1.00  0.00     0.159 C 
BRANCH  18  19
ATOM     19  CB  LYS     2      57.548  41.684  53.720  1.00  0.00     0.032 C 
BRANCH  19  20
ATOM     20  CG  LYS     2      57.337  40.196  53.407  1.00  0.00     0.004 C 
BRANCH  20  21
ATOM     21  CD  LYS     2      55.854  39.815  53.319  1.00  0.00     0.032 C 
BRANCH  21  22
ATOM     22  CE  LYS     2      55.075  40.372  54.516  1.00  0.00     0.206 C 
BRANCH  22  23
ATOM     23  NZ  LYS     2      55.411  39.686  55.776  1.00  0.00    -0.064 N 
ATOM     24  HZ1 LYS     2      55.544  40.365  56.499  1.00 99.99     0.275 HD
ATOM     25  HZ2 LYS     2      54.671  39.068  56.040  1.00 99.99     0.275 HD
ATOM     26  HZ3 LYS     2      56.258  39.166  55.662  1.00 99.99     0.275 HD
ENDBRANCH  22  23
ENDBRANCH  21  22
ENDBRANCH  20  21
ENDBRANCH  19  20
ENDBRANCH  18  19
BRANCH  18  27
ATOM     27  C   LYS     2      59.589  42.137  52.234  1.00  0.00     0.251 C 
ATOM     28  O   LYS     2      60.368  42.176  53.183  1.00  0.00    -0.271 OA
ATOM     29  N   LYS     3      60.005  42.027  50.965  1.00  0.00    -0.338 N 
ATOM     30  H   LYS     3      59.351  42.007  50.211  1.00 99.99     0.164 HD
BRANCH  29  31
ATOM     31  CA  LYS     3      61.421  41.866  50.544  1.00  0.00     0.159 C 
BRANCH  31  32
ATOM     32  C   LYS     3      62.054  43.123  49.893  1.00  0.00     0.251 C 
ATOM     33  O   LYS     3      61.577  44.231  50.132  1.00  0.00    -0.271 OA
ATOM     34  N   LEU     4      62.918  42.915  48.895  1.00  0.00    -0.338 N 
ATOM     35  H   LEU     4      63.076  41.991  48.536  1.00 99.99     0.164 HD
BRANCH  34  36
ATOM     36  CA  LEU     4      63.632  43.975  48.140  1.00  0.00     0.159 C 
BRANCH  36  37
ATOM     37  C   LEU     4      64.161  43.594  46.737  1.00  0.00     0.251 C 
ATOM     38  O   LEU     4      65.122  44.185  46.248  1.00  0.00    -0.271 OA
ATOM     39  N   ALA     5      63.682  42.462  46.228  1.00  0.00    -0.338 N 
ATOM     40  H   ALA     5      63.145  41.830  46.792  1.00 99.99     0.164 HD
BRANCH  39  41
ATOM     41  CA  ALA     5      63.952  41.956  44.867  1.00  0.00     0.159 C 
ATOM     42  CB  ALA     5      63.978  40.426  44.939  1.00  0.00     0.034 C 
BRANCH  41  43
ATOM     43  C   ALA     5      62.916  42.448  43.827  1.00  0.00     0.251 C 
ATOM     44  O   ALA     5      63.238  42.696  42.666  1.00  0.00    -0.271 OA
ATOM     45  N   TYR     6      61.652  42.476  44.249  1.00  0.00    -0.337 N 
ATOM     46  H   TYR     6      61.381  41.981  45.076  1.00 99.99     0.164 HD
BRANCH  45  47
ATOM     47  CA  TYR     6      60.515  43.077  43.515  1.00  0.00     0.164 C 
BRANCH  47  48
ATOM     48  C   TYR     6      59.400  43.554  44.472  1.00  0.00     0.251 C 
ATOM     49  N   ALA     7      58.936  42.623  45.303  1.00  0.00    -0.336 N 
ATOM     50  H   ALA     7      59.308  41.697  45.282  1.00 99.99     0.164 HD
ATOM     51  O   TYR     6      58.859  44.648  44.322  1.00  0.00    -0.271 OA
BRANCH  49  52
ATOM     52  CA  ALA     7      57.918  42.830  46.350  1.00  0.00     0.168 C 
ATOM     53  CB  ALA     7      57.054  41.567  46.435  1.00  0.00     0.036 C 
BRANCH  52  54
ATOM     54  C   ALA     7      58.617  43.057  47.700  1.00  0.00     0.206 C 
ATOM     55  OXT ALA     7      58.329  42.232  48.596  1.00 99.99    -0.646 OA
ATOM     56  O   ALA     7      59.502  43.936  47.763  1.00 99.99    -0.646 OA
ENDBRANCH  52  54
ENDBRANCH  49  52
ENDBRANCH  47  48
BRANCH  47  57
ATOM     57  CB  TYR     6      59.875  42.060  42.561  1.00  0.00     0.056 C 
BRANCH  57  58
ATOM     58  CG  TYR     6      59.434  42.520  41.168  1.00  0.00    -0.044 A 
ATOM     59  CD1 TYR     6      58.960  41.663  40.179  1.00  0.00     0.011 A 
ATOM     60  CE1 TYR     6      58.754  42.139  38.889  1.00  0.00     0.037 A 
ATOM     61  CZ  TYR     6      59.026  43.468  38.583  1.00  0.00     0.065 A 
ATOM     62  CE2 TYR     6      59.481  44.329  39.573  1.00  0.00     0.037 A 
ATOM     63  CD2 TYR     6      59.687  43.848  40.858  1.00  0.00     0.011 A 
BRANCH  61  64
ATOM     64  OH  TYR     6      58.929  43.911  37.303  1.00  0.00    -0.361 OA
ATOM     65  HH  TYR     6      59.805  44.291  37.016  1.00 99.99     0.217 HD
ENDBRANCH  61  64
ENDBRANCH  57  58
ENDBRANCH  47  57
ENDBRANCH  45  47
ENDBRANCH  41  43
ENDBRANCH  39  41
ENDBRANCH  36  37
BRANCH  36  66
ATOM     66  CB  LEU     4      64.809  44.483  48.984  1.00  0.00     0.032 C 
BRANCH  66  67
ATOM     67  CG  LEU     4      64.840  45.997  49.220  1.00  0.00     0.002 C 
ATOM     68  CD1 LEU     4      64.036  46.309  50.483  1.00  0.00     0.000 C 
ATOM     69  CD2 LEU     4      66.272  46.518  49.379  1.00  0.00     0.000 C 
ENDBRANCH  66  67
ENDBRANCH  36  66
ENDBRANCH  34  36
ENDBRANCH  31  32
BRANCH  31  70
ATOM     70  CB  LYS     3      61.515  40.650  49.605  1.00  0.00     0.032 C 
BRANCH  70  71
ATOM     71  CG  LYS     3      60.510  39.545  49.956  1.00  0.00     0.004 C 
BRANCH  71  72
ATOM     72  CD  LYS     3      61.125  38.430  50.807  1.00  0.00     0.032 C 
BRANCH  72  73
ATOM     73  CE  LYS     3      60.593  38.516  52.240  1.00  0.00     0.206 C 
BRANCH  73  74
ATOM     74  NZ  LYS     3      61.495  39.263  53.131  1.00  0.00    -0.064 N 
ATOM     75  HZ3 LYS     3      61.667  38.734  53.962  1.00 99.99     0.275 HD
ATOM     76  HZ2 LYS     3      61.083  40.142  53.371  1.00 99.99     0.275 HD
ATOM     77  HZ1 LYS     3      62.363  39.425  52.659  1.00 99.99     0.275 HD
ENDBRANCH  73  74
ENDBRANCH  72  73
ENDBRANCH  71  72
ENDBRANCH  70  71
ENDBRANCH  31  70
ENDBRANCH  29  31
ENDBRANCH  18  27
ENDBRANCH  15  18
ENDBRANCH   5  14
ENDBRANCH   1   5
TORSDOF 34
ENDMDL
MODEL 3
REMARK VINA RESULT:      -4.6      3.253      8.924
REMARK WARNING: 32 MAX_TORS EXCEEDED!!!
REMARK  34 active torsions:
REMARK  status: ('A' for Active; 'I' for Inactive)
REMARK    1  A    between atoms: N_1  and  CA_2 
REMARK    2  A    between atoms: CA_2  and  CB_5 
REMARK    3  A    between atoms: CA_2  and  C_3 
REMARK       I    between atoms: C_3  and  N_16 
REMARK    4  A    between atoms: CB_5  and  CG_6 
REMARK    5  A    between atoms: CG_6  and  CD_7 
REMARK    6  A    between atoms: CD_7  and  CE_8 
REMARK    7  A    between atoms: CE_8  and  NZ_9 
REMARK    8  A    between atoms: N_16  and  CA_17 
REMARK    9  A    between atoms: CA_17  and  CB_20 
REMARK   10  A    between atoms: CA_17  and  C_18 
REMARK       I    between atoms: C_18  and  N_29 
REMARK   11  A    between atoms: CB_20  and  CG_21 
REMARK   12  A    between atoms: CG_21  and  CD_22 
REMARK   13  A    between atoms: CD_22  and  CE_23 
REMARK   14  A    between atoms: CE_23  and  NZ_24 
REMARK   15  A    between atoms: N_29  and  CA_30 
REMARK   16  A    between atoms: CA_30  and  C_31 
REMARK   17  A    between atoms: CA_30  and  CB_33 
REMARK       I    between atoms: C_31  and  N_42 
REMARK   18  A    between atoms: CB_33  and  CG_34 
REMARK   19  A    between atoms: CG_34  and  CD_35 
REMARK   20  A    between atoms: CD_35  and  CE_36 
REMARK   21  A    between atoms: CE_36  and  NZ_37 
REMARK   22  A    between atoms: N_42  and  CA_43 
REMARK   23  A    between atoms: CA_43  and  C_44 
REMARK   24  A    between atoms: CA_43  and  CB_46 
REMARK       I    between atoms: C_44  and  N_51 
REMARK   25  A    between atoms: CB_46  and  CG_47 
REMARK   26  A    between atoms: N_51  and  CA_52 
REMARK   27  A    between atoms: CA_52  and  C_53 
REMARK       I    between atoms: C_53  and  N_57 
REMARK   28  A    between atoms: N_57  and  CA_58 
REMARK   29  A    between atoms: CA_58  and  C_59 
REMARK   30  A    between atoms: CA_58  and  CB_61 
REMARK       I    between atoms: C_59  and  N_71 
REMARK   31  A    between atoms: CB_61  and  CG_62 
REMARK   32  A    between atoms: CZ_67  and  OH_68 
REMARK   33  A    between atoms: N_71  and  CA_72 
REMARK   34  A    between atoms: CA_72  and  C_73 
ROOT
ATOM      1  N   LYS     1      57.979  42.094  40.807  1.00  0.00    -0.058 N 
ATOM      2  H1  LYS     1      57.285  42.626  40.323  1.00 99.99     0.276 HD
ATOM      3  H2  LYS     1      57.953  41.163  40.497  1.00 99.99     0.276 HD
ATOM      4  H3  LYS     1      57.723  42.057  41.767  1.00 99.99     0.276 HD
ENDROOT
BRANCH   1   5
ATOM      5  CA  LYS     1      59.297  42.742  40.608  1.00  0.00     0.255 C 
BRANCH   5   6
ATOM      6  CB  LYS     1      59.219  43.939  39.635  1.00  0.00     0.040 C 
BRANCH   6   7
ATOM      7  CG  LYS     1      60.214  43.790  38.471  1.00  0.00     0.004 C 
BRANCH   7   8
ATOM      8  CD  LYS     1      59.998  42.531  37.615  1.00  0.00     0.032 C 
BRANCH   8   9
ATOM      9  CE  LYS     1      59.253  42.875  36.317  1.00  0.00     0.206 C 
BRANCH   9  10
ATOM     10  NZ  LYS     1      59.251  44.314  35.997  1.00  0.00    -0.064 N 
ATOM     11  HZ3 LYS     1      58.510  44.775  36.483  1.00 99.99     0.275 HD
ATOM     12  HZ1 LYS     1      60.122  44.718  36.280  1.00 99.99     0.275 HD
ATOM     13  HZ2 LYS     1      59.140  44.447  35.012  1.00 99.99     0.275 HD
ENDBRANCH   9  10
ENDBRANCH   8   9
ENDBRANCH   7   8
ENDBRANCH   6   7
ENDBRANCH   5   6
BRANCH   5  14
ATOM     14  C   LYS     1      59.897  43.044  42.007  1.00  0.00     0.259 C 
ATOM     15  N   LYS     2      59.116  43.042  43.101  1.00  0.00    -0.338 N 
ATOM     16  H   LYS     2      58.141  42.828  43.038  1.00 99.99     0.164 HD
ATOM     17  O   LYS     1      61.117  42.926  42.082  1.00  0.00    -0.271 OA
BRANCH  15  18
ATOM     18  CA  LYS     2      59.559  43.377  44.484  1.00  0.00     0.159 C 
BRANCH  18  19
ATOM     19  CB  LYS     2      58.380  43.482  45.466  1.00  0.00     0.032 C 
BRANCH  19  20
ATOM     20  CG  LYS     2      58.816  44.120  46.793  1.00  0.00     0.004 C 
BRANCH  20  21
ATOM     21  CD  LYS     2      58.021  43.590  47.993  1.00  0.00     0.032 C 
BRANCH  21  22
ATOM     22  CE  LYS     2      58.356  42.119  48.264  1.00  0.00     0.206 C 
BRANCH  22  23
ATOM     23  NZ  LYS     2      58.896  41.905  49.618  1.00  0.00    -0.064 N 
ATOM     24  HZ1 LYS     2      58.143  41.881  50.277  1.00 99.99     0.275 HD
ATOM     25  HZ2 LYS     2      59.393  41.038  49.658  1.00 99.99     0.275 HD
ATOM     26  HZ3 LYS     2      59.511  42.655  49.859  1.00 99.99     0.275 HD
ENDBRANCH  22  23
ENDBRANCH  21  22
ENDBRANCH  20  21
ENDBRANCH  19  20
ENDBRANCH  18  19
BRANCH  18  27
ATOM     27  C   LYS     2      60.757  42.600  45.077  1.00  0.00     0.251 C 
ATOM     28  O   LYS     2      60.543  41.507  45.596  1.00  0.00    -0.271 OA
ATOM     29  N   LYS     3      61.940  43.221  45.167  1.00  0.00    -0.338 N 
ATOM     30  H   LYS     3      62.084  44.114  44.743  1.00 99.99     0.164 HD
BRANCH  29  31
ATOM     31  CA  LYS     3      63.149  42.660  45.825  1.00  0.00     0.159 C 
BRANCH  31  32
ATOM     32  C   LYS     3      63.450  43.233  47.234  1.00  0.00     0.251 C 
ATOM     33  O   LYS     3      64.429  43.960  47.391  1.00  0.00    -0.271 OA
ATOM     34  N   LEU     4      62.786  42.694  48.260  1.00  0.00    -0.338 N 
ATOM     35  H   LEU     4      62.188  41.899  48.124  1.00 99.99     0.164 HD
BRANCH  34  36
ATOM     36  CA  LEU     4      62.927  43.094  49.682  1.00  0.00     0.159 C 
BRANCH  36  37
ATOM     37  C   LEU     4      62.634  42.007  50.744  1.00  0.00     0.251 C 
ATOM     38  O   LEU     4      63.281  40.962  50.764  1.00  0.00    -0.271 OA
ATOM     39  N   ALA     5      61.839  42.377  51.743  1.00  0.00    -0.338 N 
ATOM     40  H   ALA     5      61.588  43.340  51.873  1.00 99.99     0.164 HD
BRANCH  39  41
ATOM     41  CA  ALA     5      61.330  41.485  52.805  1.00  0.00     0.159 C 
ATOM     42  CB  ALA     5      62.290  41.587  53.994  1.00  0.00     0.034 C 
BRANCH  41  43
ATOM     43  C   ALA     5      59.880  41.822  53.229  1.00  0.00     0.251 C 
ATOM     44  O   ALA     5      59.428  42.962  53.128  1.00  0.00    -0.271 OA
ATOM     45  N   TYR     6      59.137  40.780  53.603  1.00  0.00    -0.337 N 
ATOM     46  H   TYR     6      59.422  39.847  53.380  1.00 99.99     0.164 HD
BRANCH  45  47
ATOM     47  CA  TYR     6      57.794  40.861  54.224  1.00  0.00     0.164 C 
BRANCH  47  48
ATOM     48  C   TYR     6      57.749  40.142  55.590  1.00  0.00     0.251 C 
ATOM     49  N   ALA     7      57.313  40.888  56.603  1.00  0.00    -0.336 N 
ATOM     50  H   ALA     7      57.042  41.837  56.452  1.00 99.99     0.164 HD
ATOM     51  O   TYR     6      58.269  39.039  55.745  1.00  0.00    -0.271 OA
BRANCH  49  52
ATOM     52  CA  ALA     7      57.120  40.430  57.992  1.00  0.00     0.168 C 
ATOM     53  CB  ALA     7      58.365  40.810  58.800  1.00  0.00     0.036 C 
BRANCH  52  54
ATOM     54  C   ALA     7      55.893  41.135  58.593  1.00  0.00     0.206 C 
ATOM     55  OXT ALA     7      56.034  41.543  59.768  1.00 99.99    -0.646 OA
ATOM     56  O   ALA     7      54.923  41.369  57.841  1.00 99.99    -0.646 OA
ENDBRANCH  52  54
ENDBRANCH  49  52
ENDBRANCH  47  48
BRANCH  47  57
ATOM     57  CB  TYR     6      56.736  40.195  53.335  1.00  0.00     0.056 C 
BRANCH  57  58
ATOM     58  CG  TYR     6      56.045  41.025  52.250  1.00  0.00    -0.044 A 
ATOM     59  CD1 TYR     6      55.536  40.494  51.068  1.00  0.00     0.011 A 
ATOM     60  CE1 TYR     6      55.089  41.343  50.061  1.00  0.00     0.037 A 
ATOM     61  CZ  TYR     6      55.153  42.721  50.230  1.00  0.00     0.065 A 
ATOM     62  CE2 TYR     6      55.642  43.253  51.416  1.00  0.00     0.037 A 
ATOM     63  CD2 TYR     6      56.089  42.402  52.416  1.00  0.00     0.011 A 
BRANCH  61  64
ATOM     64  OH  TYR     6      54.818  43.554  49.211  1.00  0.00    -0.361 OA
ATOM     65  HH  TYR     6      55.077  43.137  48.343  1.00 99.99     0.217 HD
ENDBRANCH  61  64
ENDBRANCH  57  58
ENDBRANCH  47  57
ENDBRANCH  45  47
ENDBRANCH  41  43
ENDBRANCH  39  41
ENDBRANCH  36  37
BRANCH  36  66
ATOM     66  CB  LEU     4      62.015  44.299  49.953  1.00  0.00     0.032 C 
BRANCH  66  67
ATOM     67  CG  LEU     4      62.740  45.592  50.343  1.00  0.00     0.002 C 
ATOM     68  CD1 LEU     4      64.244  45.318  50.374  1.00  0.00     0.000 C 
ATOM     69  CD2 LEU     4      62.443  46.729  49.359  1.00  0.00     0.000 C 
ENDBRANCH  66  67
ENDBRANCH  36  66
ENDBRANCH  34  36
ENDBRANCH  31  32
BRANCH  31  70
ATOM     70  CB  LYS     3      64.350  42.850  44.882  1.00  0.00     0.032 C 
BRANCH  70  71
ATOM     71  CG  LYS     3      65.214  41.590  44.752  1.00  0.00     0.004 C 
BRANCH  71  72
ATOM     72  CD  LYS     3      66.713  41.900  44.696  1.00  0.00     0.032 C 
BRANCH  72  73
ATOM     73  CE  LYS     3      67.034  43.078  45.621  1.00  0.00     0.206 C 
BRANCH  73  74
ATOM     74  NZ  LYS     3      67.273  42.653  47.009  1.00  0.00    -0.064 N 
ATOM     75  HZ3 LYS     3      66.750  43.230  47.637  1.00 99.99     0.275 HD
ATOM     76  HZ2 LYS     3      68.248  42.722  47.222  1.00 99.99     0.275 HD
ATOM     77  HZ1 LYS     3      66.981  41.701  47.117  1.00 99.99     0.275 HD
ENDBRANCH  73  74
ENDBRANCH  72  73
ENDBRANCH  71  72
ENDBRANCH  70  71
ENDBRANCH  31  70
ENDBRANCH  29  31
ENDBRANCH  18  27
ENDBRANCH  15  18
ENDBRANCH   5  14
ENDBRANCH   1   5
TORSDOF 34
ENDMDL
MODEL 4
REMARK VINA RESULT:      -4.5      2.550      6.815
REMARK WARNING: 32 MAX_TORS EXCEEDED!!!
REMARK  34 active torsions:
REMARK  status: ('A' for Active; 'I' for Inactive)
REMARK    1  A    between atoms: N_1  and  CA_2 
REMARK    2  A    between atoms: CA_2  and  CB_5 
REMARK    3  A    between atoms: CA_2  and  C_3 
REMARK       I    between atoms: C_3  and  N_16 
REMARK    4  A    between atoms: CB_5  and  CG_6 
REMARK    5  A    between atoms: CG_6  and  CD_7 
REMARK    6  A    between atoms: CD_7  and  CE_8 
REMARK    7  A    between atoms: CE_8  and  NZ_9 
REMARK    8  A    between atoms: N_16  and  CA_17 
REMARK    9  A    between atoms: CA_17  and  CB_20 
REMARK   10  A    between atoms: CA_17  and  C_18 
REMARK       I    between atoms: C_18  and  N_29 
REMARK   11  A    between atoms: CB_20  and  CG_21 
REMARK   12  A    between atoms: CG_21  and  CD_22 
REMARK   13  A    between atoms: CD_22  and  CE_23 
REMARK   14  A    between atoms: CE_23  and  NZ_24 
REMARK   15  A    between atoms: N_29  and  CA_30 
REMARK   16  A    between atoms: CA_30  and  C_31 
REMARK   17  A    between atoms: CA_30  and  CB_33 
REMARK       I    between atoms: C_31  and  N_42 
REMARK   18  A    between atoms: CB_33  and  CG_34 
REMARK   19  A    between atoms: CG_34  and  CD_35 
REMARK   20  A    between atoms: CD_35  and  CE_36 
REMARK   21  A    between atoms: CE_36  and  NZ_37 
REMARK   22  A    between atoms: N_42  and  CA_43 
REMARK   23  A    between atoms: CA_43  and  C_44 
REMARK   24  A    between atoms: CA_43  and  CB_46 
REMARK       I    between atoms: C_44  and  N_51 
REMARK   25  A    between atoms: CB_46  and  CG_47 
REMARK   26  A    between atoms: N_51  and  CA_52 
REMARK   27  A    between atoms: CA_52  and  C_53 
REMARK       I    between atoms: C_53  and  N_57 
REMARK   28  A    between atoms: N_57  and  CA_58 
REMARK   29  A    between atoms: CA_58  and  C_59 
REMARK   30  A    between atoms: CA_58  and  CB_61 
REMARK       I    between atoms: C_59  and  N_71 
REMARK   31  A    between atoms: CB_61  and  CG_62 
REMARK   32  A    between atoms: CZ_67  and  OH_68 
REMARK   33  A    between atoms: N_71  and  CA_72 
REMARK   34  A    between atoms: CA_72  and  C_73 
ROOT
ATOM      1  N   LYS     1      54.285  42.428  50.135  1.00  0.00    -0.058 N 
ATOM      2  H1  LYS     1      54.014  42.038  51.015  1.00 99.99     0.276 HD
ATOM      3  H2  LYS     1      53.492  42.769  49.670  1.00 99.99     0.276 HD
ATOM      4  H3  LYS     1      54.627  41.690  49.563  1.00 99.99     0.276 HD
ENDROOT
BRANCH   1   5
ATOM      5  CA  LYS     1      55.316  43.466  50.376  1.00  0.00     0.255 C 
BRANCH   5   6
ATOM      6  CB  LYS     1      55.848  43.437  51.826  1.00  0.00     0.040 C 
BRANCH   6   7
ATOM      7  CG  LYS     1      55.805  42.018  52.418  1.00  0.00     0.004 C 
BRANCH   7   8
ATOM      8  CD  LYS     1      57.184  41.452  52.798  1.00  0.00     0.032 C 
BRANCH   8   9
ATOM      9  CE  LYS     1      58.236  42.570  52.848  1.00  0.00     0.206 C 
BRANCH   9  10
ATOM     10  NZ  LYS     1      59.466  42.263  52.094  1.00  0.00    -0.064 N 
ATOM     11  HZ3 LYS     1      59.976  43.102  51.908  1.00 99.99     0.275 HD
ATOM     12  HZ1 LYS     1      60.041  41.648  52.634  1.00 99.99     0.275 HD
ATOM     13  HZ2 LYS     1      59.236  41.812  51.231  1.00 99.99     0.275 HD
ENDBRANCH   9  10
ENDBRANCH   8   9
ENDBRANCH   7   8
ENDBRANCH   6   7
ENDBRANCH   5   6
BRANCH   5  14
ATOM     14  C   LYS     1      56.385  43.345  49.259  1.00  0.00     0.259 C 
ATOM     15  N   LYS     2      57.143  42.240  49.154  1.00  0.00    -0.338 N 
ATOM     16  H   LYS     2      57.018  41.468  49.777  1.00 99.99     0.164 HD
ATOM     17  O   LYS     1      56.243  44.124  48.320  1.00  0.00    -0.271 OA
BRANCH  15  18
ATOM     18  CA  LYS     2      58.241  42.031  48.168  1.00  0.00     0.159 C 
BRANCH  18  19
ATOM     19  CB  LYS     2      57.720  41.913  46.726  1.00  0.00     0.032 C 
BRANCH  19  20
ATOM     20  CG  LYS     2      58.346  40.712  46.003  1.00  0.00     0.004 C 
BRANCH  20  21
ATOM     21  CD  LYS     2      57.308  39.856  45.270  1.00  0.00     0.032 C 
BRANCH  21  22
ATOM     22  CE  LYS     2      55.887  40.210  45.723  1.00  0.00     0.206 C 
BRANCH  22  23
ATOM     23  NZ  LYS     2      54.878  39.927  44.687  1.00  0.00    -0.064 N 
ATOM     24  HZ1 LYS     2      54.855  40.681  44.030  1.00 99.99     0.275 HD
ATOM     25  HZ2 LYS     2      55.107  39.081  44.206  1.00 99.99     0.275 HD
ATOM     26  HZ3 LYS     2      53.976  39.839  45.109  1.00 99.99     0.275 HD
ENDBRANCH  22  23
ENDBRANCH  21  22
ENDBRANCH  20  21
ENDBRANCH  19  20
ENDBRANCH  18  19
BRANCH  18  27
ATOM     27  C   LYS     2      59.497  42.927  48.272  1.00  0.00     0.251 C 
ATOM     28  O   LYS     2      59.508  43.989  47.655  1.00  0.00    -0.271 OA
ATOM     29  N   LYS     3      60.587  42.432  48.874  1.00  0.00    -0.338 N 
ATOM     30  H   LYS     3      60.553  41.561  49.360  1.00 99.99     0.164 HD
BRANCH  29  31
ATOM     31  CA  LYS     3      61.906  43.114  48.942  1.00  0.00     0.159 C 
BRANCH  31  32
ATOM     32  C   LYS     3      63.120  42.169  49.128  1.00  0.00     0.251 C 
ATOM     33  O   LYS     3      64.080  42.263  48.364  1.00  0.00    -0.271 OA
ATOM     34  N   LEU     4      62.951  41.121  49.940  1.00  0.00    -0.338 N 
ATOM     35  H   LEU     4      62.051  40.919  50.336  1.00 99.99     0.164 HD
BRANCH  34  36
ATOM     36  CA  LEU     4      63.981  40.100  50.253  1.00  0.00     0.159 C 
BRANCH  36  37
ATOM     37  C   LEU     4      64.352  39.114  49.119  1.00  0.00     0.251 C 
ATOM     38  O   LEU     4      65.259  38.299  49.269  1.00  0.00    -0.271 OA
ATOM     39  N   ALA     5      63.489  39.048  48.108  1.00  0.00    -0.338 N 
ATOM     40  H   ALA     5      62.589  39.487  48.169  1.00 99.99     0.164 HD
BRANCH  39  41
ATOM     41  CA  ALA     5      63.685  38.270  46.868  1.00  0.00     0.159 C 
ATOM     42  CB  ALA     5      62.526  37.275  46.759  1.00  0.00     0.034 C 
BRANCH  41  43
ATOM     43  C   ALA     5      63.775  39.162  45.606  1.00  0.00     0.251 C 
ATOM     44  O   ALA     5      63.816  38.678  44.477  1.00  0.00    -0.271 OA
ATOM     45  N   TYR     6      63.695  40.475  45.828  1.00  0.00    -0.337 N 
ATOM     46  H   TYR     6      63.352  40.822  46.702  1.00 99.99     0.164 HD
BRANCH  45  47
ATOM     47  CA  TYR     6      63.940  41.532  44.821  1.00  0.00     0.164 C 
BRANCH  47  48
ATOM     48  C   TYR     6      65.369  42.107  44.926  1.00  0.00     0.251 C 
ATOM     49  N   ALA     7      65.593  42.866  45.996  1.00  0.00    -0.336 N 
ATOM     50  H   ALA     7      64.866  43.027  46.662  1.00 99.99     0.164 HD
ATOM     51  O   TYR     6      66.157  42.027  43.985  1.00  0.00    -0.271 OA
BRANCH  49  52
ATOM     52  CA  ALA     7      66.880  43.486  46.362  1.00  0.00     0.168 C 
ATOM     53  CB  ALA     7      66.616  44.942  46.760  1.00  0.00     0.036 C 
BRANCH  52  54
ATOM     54  C   ALA     7      67.482  42.735  47.562  1.00  0.00     0.206 C 
ATOM     55  OXT ALA     7      68.194  41.747  47.272  1.00 99.99    -0.646 OA
ATOM     56  O   ALA     7      67.337  43.232  48.699  1.00 99.99    -0.646 OA
ENDBRANCH  52  54
ENDBRANCH  49  52
ENDBRANCH  47  48
BRANCH  47  57
ATOM     57  CB  TYR     6      62.973  42.708  45.010  1.00  0.00     0.056 C 
BRANCH  57  58
ATOM     58  CG  TYR     6      61.794  42.867  44.046  1.00  0.00    -0.044 A 
ATOM     59  CD1 TYR     6      60.522  43.279  44.433  1.00  0.00     0.011 A 
ATOM     60  CE1 TYR     6      59.468  43.221  43.527  1.00  0.00     0.037 A 
ATOM     61  CZ  TYR     6      59.681  42.747  42.237  1.00  0.00     0.065 A 
ATOM     62  CE2 TYR     6      60.954  42.353  41.844  1.00  0.00     0.037 A 
ATOM     63  CD2 TYR     6      62.000  42.411  42.752  1.00  0.00     0.011 A 
BRANCH  61  64
ATOM     64  OH  TYR     6      58.637  42.587  41.383  1.00  0.00    -0.361 OA
ATOM     65  HH  TYR     6      58.772  41.757  40.846  1.00 99.99     0.217 HD
ENDBRANCH  61  64
ENDBRANCH  57  58
ENDBRANCH  47  57
ENDBRANCH  45  47
ENDBRANCH  41  43
ENDBRANCH  39  41
ENDBRANCH  36  37
BRANCH  36  66
ATOM     66  CB  LEU     4      63.524  39.289  51.473  1.00  0.00     0.032 C 
BRANCH  66  67
ATOM     67  CG  LEU     4      62.016  39.309  51.745  1.00  0.00     0.002 C 
ATOM     68  CD1 LEU     4      61.398  38.038  51.162  1.00  0.00     0.000 C 
ATOM     69  CD2 LEU     4      61.710  39.389  53.244  1.00  0.00     0.000 C 
ENDBRANCH  66  67
ENDBRANCH  36  66
ENDBRANCH  34  36
ENDBRANCH  31  32
BRANCH  31  70
ATOM     70  CB  LYS     3      61.850  44.170  50.060  1.00  0.00     0.032 C 
BRANCH  70  71
ATOM     71  CG  LYS     3      62.357  45.546  49.609  1.00  0.00     0.004 C 
BRANCH  71  72
ATOM     72  CD  LYS     3      63.445  46.110  50.528  1.00  0.00     0.032 C 
BRANCH  72  73
ATOM     73  CE  LYS     3      64.817  45.951  49.867  1.00  0.00     0.206 C 
BRANCH  73  74
ATOM     74  NZ  LYS     3      65.280  47.194  49.229  1.00  0.00    -0.064 N 
ATOM     75  HZ3 LYS     3      66.059  47.566  49.735  1.00 99.99     0.275 HD
ATOM     76  HZ2 LYS     3      64.539  47.864  49.214  1.00 99.99     0.275 HD
ATOM     77  HZ1 LYS     3      65.563  46.996  48.289  1.00 99.99     0.275 HD
ENDBRANCH  73  74
ENDBRANCH  72  73
ENDBRANCH  71  72
ENDBRANCH  70  71
ENDBRANCH  31  70
ENDBRANCH  29  31
ENDBRANCH  18  27
ENDBRANCH  15  18
ENDBRANCH   5  14
ENDBRANCH   1   5
TORSDOF 34
ENDMDL
MODEL 5
REMARK VINA RESULT:      -4.5      1.689      4.195
REMARK WARNING: 32 MAX_TORS EXCEEDED!!!
REMARK  34 active torsions:
REMARK  status: ('A' for Active; 'I' for Inactive)
REMARK    1  A    between atoms: N_1  and  CA_2 
REMARK    2  A    between atoms: CA_2  and  CB_5 
REMARK    3  A    between atoms: CA_2  and  C_3 
REMARK       I    between atoms: C_3  and  N_16 
REMARK    4  A    between atoms: CB_5  and  CG_6 
REMARK    5  A    between atoms: CG_6  and  CD_7 
REMARK    6  A    between atoms: CD_7  and  CE_8 
REMARK    7  A    between atoms: CE_8  and  NZ_9 
REMARK    8  A    between atoms: N_16  and  CA_17 
REMARK    9  A    between atoms: CA_17  and  CB_20 
REMARK   10  A    between atoms: CA_17  and  C_18 
REMARK       I    between atoms: C_18  and  N_29 
REMARK   11  A    between atoms: CB_20  and  CG_21 
REMARK   12  A    between atoms: CG_21  and  CD_22 
REMARK   13  A    between atoms: CD_22  and  CE_23 
REMARK   14  A    between atoms: CE_23  and  NZ_24 
REMARK   15  A    between atoms: N_29  and  CA_30 
REMARK   16  A    between atoms: CA_30  and  C_31 
REMARK   17  A    between atoms: CA_30  and  CB_33 
REMARK       I    between atoms: C_31  and  N_42 
REMARK   18  A    between atoms: CB_33  and  CG_34 
REMARK   19  A    between atoms: CG_34  and  CD_35 
REMARK   20  A    between atoms: CD_35  and  CE_36 
REMARK   21  A    between atoms: CE_36  and  NZ_37 
REMARK   22  A    between atoms: N_42  and  CA_43 
REMARK   23  A    between atoms: CA_43  and  C_44 
REMARK   24  A    between atoms: CA_43  and  CB_46 
REMARK       I    between atoms: C_44  and  N_51 
REMARK   25  A    between atoms: CB_46  and  CG_47 
REMARK   26  A    between atoms: N_51  and  CA_52 
REMARK   27  A    between atoms: CA_52  and  C_53 
REMARK       I    between atoms: C_53  and  N_57 
REMARK   28  A    between atoms: N_57  and  CA_58 
REMARK   29  A    between atoms: CA_58  and  C_59 
REMARK   30  A    between atoms: CA_58  and  CB_61 
REMARK       I    between atoms: C_59  and  N_71 
REMARK   31  A    between atoms: CB_61  and  CG_62 
REMARK   32  A    between atoms: CZ_67  and  OH_68 
REMARK   33  A    between atoms: N_71  and  CA_72 
REMARK   34  A    between atoms: CA_72  and  C_73 
ROOT
ATOM      1  N   LYS     1      58.917  44.130  47.105  1.00  0.00    -0.058 N 
ATOM      2  H1  LYS     1      58.809  44.594  47.984  1.00 99.99     0.276 HD
ATOM      3  H2  LYS     1      59.693  43.530  47.144  1.00 99.99     0.276 HD
ATOM      4  H3  LYS     1      59.151  44.814  46.423  1.00 99.99     0.276 HD
ENDROOT
BRANCH   1   5
ATOM      5  CA  LYS     1      57.652  43.431  46.779  1.00  0.00     0.255 C 
BRANCH   5   6
ATOM      6  CB  LYS     1      57.872  41.933  46.470  1.00  0.00     0.040 C 
BRANCH   6   7
ATOM      7  CG  LYS     1      56.706  41.343  45.659  1.00  0.00     0.004 C 
BRANCH   7   8
ATOM      8  CD  LYS     1      56.391  39.874  45.989  1.00  0.00     0.032 C 
BRANCH   8   9
ATOM      9  CE  LYS     1      54.961  39.514  45.559  1.00  0.00     0.206 C 
BRANCH   9  10
ATOM     10  NZ  LYS     1      54.845  39.134  44.139  1.00  0.00    -0.064 N 
ATOM     11  HZ3 LYS     1      54.497  38.200  44.059  1.00 99.99     0.275 HD
ATOM     12  HZ1 LYS     1      54.211  39.756  43.679  1.00 99.99     0.275 HD
ATOM     13  HZ2 LYS     1      55.738  39.197  43.692  1.00 99.99     0.275 HD
ENDBRANCH   9  10
ENDBRANCH   8   9
ENDBRANCH   7   8
ENDBRANCH   6   7
ENDBRANCH   5   6
BRANCH   5  14
ATOM     14  C   LYS     1      56.629  43.748  47.901  1.00  0.00     0.259 C 
ATOM     15  N   LYS     2      56.399  42.864  48.887  1.00  0.00    -0.338 N 
ATOM     16  H   LYS     2      56.895  41.997  48.928  1.00 99.99     0.164 HD
ATOM     17  O   LYS     1      56.341  44.937  48.018  1.00  0.00    -0.271 OA
BRANCH  15  18
ATOM     18  CA  LYS     2      55.399  43.024  49.981  1.00  0.00     0.159 C 
BRANCH  18  19
ATOM     19  CB  LYS     2      54.108  42.232  49.715  1.00  0.00     0.032 C 
BRANCH  19  20
ATOM     20  CG  LYS     2      54.414  40.850  49.121  1.00  0.00     0.004 C 
BRANCH  20  21
ATOM     21  CD  LYS     2      53.991  39.702  50.045  1.00  0.00     0.032 C 
BRANCH  21  22
ATOM     22  CE  LYS     2      52.474  39.488  49.993  1.00  0.00     0.206 C 
BRANCH  22  23
ATOM     23  NZ  LYS     2      51.787  40.035  51.177  1.00  0.00    -0.064 N 
ATOM     24  HZ1 LYS     2      51.013  40.597  50.882  1.00 99.99     0.275 HD
ATOM     25  HZ2 LYS     2      51.451  39.291  51.754  1.00 99.99     0.275 HD
ATOM     26  HZ3 LYS     2      52.419  40.607  51.700  1.00 99.99     0.275 HD
ENDBRANCH  22  23
ENDBRANCH  21  22
ENDBRANCH  20  21
ENDBRANCH  19  20
ENDBRANCH  18  19
BRANCH  18  27
ATOM     27  C   LYS     2      55.887  42.888  51.442  1.00  0.00     0.251 C 
ATOM     28  O   LYS     2      55.695  43.828  52.210  1.00  0.00    -0.271 OA
ATOM     29  N   LYS     3      56.656  41.840  51.764  1.00  0.00    -0.338 N 
ATOM     30  H   LYS     3      56.803  41.094  51.117  1.00 99.99     0.164 HD
BRANCH  29  31
ATOM     31  CA  LYS     3      57.306  41.634  53.085  1.00  0.00     0.159 C 
BRANCH  31  32
ATOM     32  C   LYS     3      58.707  42.282  53.230  1.00  0.00     0.251 C 
ATOM     33  O   LYS     3      58.793  43.484  53.476  1.00  0.00    -0.271 OA
ATOM     34  N   LEU     4      59.752  41.560  52.815  1.00  0.00    -0.338 N 
ATOM     35  H   LEU     4      59.617  40.678  52.356  1.00 99.99     0.164 HD
BRANCH  34  36
ATOM     36  CA  LEU     4      61.171  41.992  52.864  1.00  0.00     0.159 C 
BRANCH  36  37
ATOM     37  C   LEU     4      61.609  43.060  51.834  1.00  0.00     0.251 C 
ATOM     38  O   LEU     4      61.799  44.224  52.180  1.00  0.00    -0.271 OA
ATOM     39  N   ALA     5      61.993  42.595  50.649  1.00  0.00    -0.338 N 
ATOM     40  H   ALA     5      62.138  41.613  50.503  1.00 99.99     0.164 HD
BRANCH  39  41
ATOM     41  CA  ALA     5      62.342  43.424  49.477  1.00  0.00     0.159 C 
ATOM     42  CB  ALA     5      63.812  43.831  49.621  1.00  0.00     0.034 C 
BRANCH  41  43
ATOM     43  C   ALA     5      62.093  42.700  48.132  1.00  0.00     0.251 C 
ATOM     44  O   ALA     5      61.031  42.126  47.897  1.00  0.00    -0.271 OA
ATOM     45  N   TYR     6      63.058  42.836  47.222  1.00  0.00    -0.337 N 
ATOM     46  H   TYR     6      63.751  43.551  47.320  1.00 99.99     0.164 HD
BRANCH  45  47
ATOM     47  CA  TYR     6      63.143  42.095  45.943  1.00  0.00     0.164 C 
BRANCH  47  48
ATOM     48  C   TYR     6      64.607  41.876  45.501  1.00  0.00     0.251 C 
ATOM     49  N   ALA     7      65.520  42.475  46.263  1.00  0.00    -0.336 N 
ATOM     50  H   ALA     7      65.241  43.016  47.055  1.00 99.99     0.164 HD
ATOM     51  O   TYR     6      64.873  41.360  44.418  1.00  0.00    -0.271 OA
BRANCH  49  52
ATOM     52  CA  ALA     7      66.982  42.380  46.096  1.00  0.00     0.168 C 
ATOM     53  CB  ALA     7      67.571  43.790  46.208  1.00  0.00     0.036 C 
BRANCH  52  54
ATOM     54  C   ALA     7      67.564  41.498  47.213  1.00  0.00     0.206 C 
ATOM     55  OXT ALA     7      68.095  42.120  48.162  1.00 99.99    -0.646 OA
ATOM     56  O   ALA     7      67.348  40.269  47.164  1.00 99.99    -0.646 OA
ENDBRANCH  52  54
ENDBRANCH  49  52
ENDBRANCH  47  48
BRANCH  47  57
ATOM     57  CB  TYR     6      62.450  42.867  44.813  1.00  0.00     0.056 C 
BRANCH  57  58
ATOM     58  CG  TYR     6      61.119  42.345  44.262  1.00  0.00    -0.044 A 
ATOM     59  CD1 TYR     6      60.823  40.996  44.089  1.00  0.00     0.011 A 
ATOM     60  CE1 TYR     6      59.665  40.620  43.416  1.00  0.00     0.037 A 
ATOM     61  CZ  TYR     6      58.806  41.589  42.910  1.00  0.00     0.065 A 
ATOM     62  CE2 TYR     6      59.090  42.935  43.098  1.00  0.00     0.037 A 
ATOM     63  CD2 TYR     6      60.247  43.304  43.768  1.00  0.00     0.011 A 
BRANCH  61  64
ATOM     64  OH  TYR     6      57.731  41.229  42.161  1.00  0.00    -0.361 OA
ATOM     65  HH  TYR     6      57.105  42.002  42.088  1.00 99.99     0.217 HD
ENDBRANCH  61  64
ENDBRANCH  57  58
ENDBRANCH  47  57
ENDBRANCH  45  47
ENDBRANCH  41  43
ENDBRANCH  39  41
ENDBRANCH  36  37
BRANCH  36  66
ATOM     66  CB  LEU     4      62.073  40.761  52.704  1.00  0.00     0.032 C 
BRANCH  66  67
ATOM     67  CG  LEU     4      63.330  40.752  53.581  1.00  0.00     0.002 C 
ATOM     68  CD1 LEU     4      62.969  41.323  54.954  1.00  0.00     0.000 C 
ATOM     69  CD2 LEU     4      63.899  39.339  53.745  1.00  0.00     0.000 C 
ENDBRANCH  66  67
ENDBRANCH  36  66
ENDBRANCH  34  36
ENDBRANCH  31  32
BRANCH  31  70
ATOM     70  CB  LYS     3      57.363  40.123  53.369  1.00  0.00     0.032 C 
BRANCH  70  71
ATOM     71  CG  LYS     3      57.054  39.777  54.832  1.00  0.00     0.004 C 
BRANCH  71  72
ATOM     72  CD  LYS     3      55.726  39.034  54.999  1.00  0.00     0.032 C 
BRANCH  72  73
ATOM     73  CE  LYS     3      54.788  39.379  53.838  1.00  0.00     0.206 C 
BRANCH  73  74
ATOM     74  NZ  LYS     3      53.946  38.241  53.439  1.00  0.00    -0.064 N 
ATOM     75  HZ3 LYS     3      53.080  38.573  53.064  1.00 99.99     0.275 HD
ATOM     76  HZ2 LYS     3      53.767  37.657  54.231  1.00 99.99     0.275 HD
ATOM     77  HZ1 LYS     3      54.423  37.706  52.739  1.00 99.99     0.275 HD
ENDBRANCH  73  74
ENDBRANCH  72  73
ENDBRANCH  71  72
ENDBRANCH  70  71
ENDBRANCH  31  70
ENDBRANCH  29  31
ENDBRANCH  18  27
ENDBRANCH  15  18
ENDBRANCH   5  14
ENDBRANCH   1   5
TORSDOF 34
ENDMDL
MODEL 6
REMARK VINA RESULT:      -4.3      2.003      3.133
REMARK WARNING: 32 MAX_TORS EXCEEDED!!!
REMARK  34 active torsions:
REMARK  status: ('A' for Active; 'I' for Inactive)
REMARK    1  A    between atoms: N_1  and  CA_2 
REMARK    2  A    between atoms: CA_2  and  CB_5 
REMARK    3  A    between atoms: CA_2  and  C_3 
REMARK       I    between atoms: C_3  and  N_16 
REMARK    4  A    between atoms: CB_5  and  CG_6 
REMARK    5  A    between atoms: CG_6  and  CD_7 
REMARK    6  A    between atoms: CD_7  and  CE_8 
REMARK    7  A    between atoms: CE_8  and  NZ_9 
REMARK    8  A    between atoms: N_16  and  CA_17 
REMARK    9  A    between atoms: CA_17  and  CB_20 
REMARK   10  A    between atoms: CA_17  and  C_18 
REMARK       I    between atoms: C_18  and  N_29 
REMARK   11  A    between atoms: CB_20  and  CG_21 
REMARK   12  A    between atoms: CG_21  and  CD_22 
REMARK   13  A    between atoms: CD_22  and  CE_23 
REMARK   14  A    between atoms: CE_23  and  NZ_24 
REMARK   15  A    between atoms: N_29  and  CA_30 
REMARK   16  A    between atoms: CA_30  and  C_31 
REMARK   17  A    between atoms: CA_30  and  CB_33 
REMARK       I    between atoms: C_31  and  N_42 
REMARK   18  A    between atoms: CB_33  and  CG_34 
REMARK   19  A    between atoms: CG_34  and  CD_35 
REMARK   20  A    between atoms: CD_35  and  CE_36 
REMARK   21  A    between atoms: CE_36  and  NZ_37 
REMARK   22  A    between atoms: N_42  and  CA_43 
REMARK   23  A    between atoms: CA_43  and  C_44 
REMARK   24  A    between atoms: CA_43  and  CB_46 
REMARK       I    between atoms: C_44  and  N_51 
REMARK   25  A    between atoms: CB_46  and  CG_47 
REMARK   26  A    between atoms: N_51  and  CA_52 
REMARK   27  A    between atoms: CA_52  and  C_53 
REMARK       I    between atoms: C_53  and  N_57 
REMARK   28  A    between atoms: N_57  and  CA_58 
REMARK   29  A    between atoms: CA_58  and  C_59 
REMARK   30  A    between atoms: CA_58  and  CB_61 
REMARK       I    between atoms: C_59  and  N_71 
REMARK   31  A    between atoms: CB_61  and  CG_62 
REMARK   32  A    between atoms: CZ_67  and  OH_68 
REMARK   33  A    between atoms: N_71  and  CA_72 
REMARK   34  A    between atoms: CA_72  and  C_73 
ROOT
ATOM      1  N   LYS     1      59.125  43.263  46.218  1.00  0.00    -0.058 N 
ATOM      2  H1  LYS     1      59.095  44.260  46.288  1.00 99.99     0.276 HD
ATOM      3  H2  LYS     1      59.733  42.905  46.899  1.00 99.99     0.276 HD
ATOM      4  H3  LYS     1      59.540  43.028  45.346  1.00 99.99     0.276 HD
ENDROOT
BRANCH   1   5
ATOM      5  CA  LYS     1      57.743  42.739  46.333  1.00  0.00     0.255 C 
BRANCH   5   6
ATOM      6  CB  LYS     1      57.688  41.200  46.206  1.00  0.00     0.040 C 
BRANCH   6   7
ATOM      7  CG  LYS     1      56.793  40.759  45.034  1.00  0.00     0.004 C 
BRANCH   7   8
ATOM      8  CD  LYS     1      57.436  39.709  44.112  1.00  0.00     0.032 C 
BRANCH   8   9
ATOM      9  CE  LYS     1      57.658  40.283  42.705  1.00  0.00     0.206 C 
BRANCH   9  10
ATOM     10  NZ  LYS     1      57.765  41.753  42.673  1.00  0.00    -0.064 N 
ATOM     11  HZ3 LYS     1      58.174  42.051  41.811  1.00 99.99     0.275 HD
ATOM     12  HZ1 LYS     1      56.851  42.154  42.753  1.00 99.99     0.275 HD
ATOM     13  HZ2 LYS     1      58.324  42.074  43.438  1.00 99.99     0.275 HD
ENDBRANCH   9  10
ENDBRANCH   8   9
ENDBRANCH   7   8
ENDBRANCH   6   7
ENDBRANCH   5   6
BRANCH   5  14
ATOM     14  C   LYS     1      57.111  43.336  47.617  1.00  0.00     0.259 C 
ATOM     15  N   LYS     2      56.558  42.535  48.544  1.00  0.00    -0.338 N 
ATOM     16  H   LYS     2      56.561  41.541  48.434  1.00 99.99     0.164 HD
ATOM     17  O   LYS     1      57.460  44.484  47.880  1.00  0.00    -0.271 OA
BRANCH  15  18
ATOM     18  CA  LYS     2      55.867  42.989  49.783  1.00  0.00     0.159 C 
BRANCH  18  19
ATOM     19  CB  LYS     2      54.420  42.474  49.869  1.00  0.00     0.032 C 
BRANCH  19  20
ATOM     20  CG  LYS     2      54.313  41.026  49.370  1.00  0.00     0.004 C 
BRANCH  20  21
ATOM     21  CD  LYS     2      53.529  40.126  50.331  1.00  0.00     0.032 C 
BRANCH  21  22
ATOM     22  CE  LYS     2      52.020  40.246  50.086  1.00  0.00     0.206 C 
BRANCH  22  23
ATOM     23  NZ  LYS     2      51.238  40.152  51.332  1.00  0.00    -0.064 N 
ATOM     24  HZ1 LYS     2      50.473  39.522  51.197  1.00 99.99     0.275 HD
ATOM     25  HZ2 LYS     2      51.814  39.814  52.075  1.00 99.99     0.275 HD
ATOM     26  HZ3 LYS     2      50.875  41.053  51.571  1.00 99.99     0.275 HD
ENDBRANCH  22  23
ENDBRANCH  21  22
ENDBRANCH  20  21
ENDBRANCH  19  20
ENDBRANCH  18  19
BRANCH  18  27
ATOM     27  C   LYS     2      56.620  42.865  51.128  1.00  0.00     0.251 C 
ATOM     28  O   LYS     2      56.208  43.511  52.089  1.00  0.00    -0.271 OA
ATOM     29  N   LYS     3      57.788  42.209  51.148  1.00  0.00    -0.338 N 
ATOM     30  H   LYS     3      58.103  41.700  50.350  1.00 99.99     0.164 HD
BRANCH  29  31
ATOM     31  CA  LYS     3      58.690  42.113  52.325  1.00  0.00     0.159 C 
BRANCH  31  32
ATOM     32  C   LYS     3      60.169  42.485  52.046  1.00  0.00     0.251 C 
ATOM     33  O   LYS     3      60.732  43.301  52.773  1.00  0.00    -0.271 OA
ATOM     34  N   LEU     4      60.676  42.102  50.871  1.00  0.00    -0.338 N 
ATOM     35  H   LEU     4      60.094  41.671  50.176  1.00 99.99     0.164 HD
BRANCH  34  36
ATOM     36  CA  LEU     4      62.063  42.357  50.408  1.00  0.00     0.159 C 
BRANCH  36  37
ATOM     37  C   LEU     4      62.251  43.473  49.353  1.00  0.00     0.251 C 
ATOM     38  O   LEU     4      61.292  43.893  48.708  1.00  0.00    -0.271 OA
ATOM     39  N   ALA     5      63.427  44.094  49.374  1.00  0.00    -0.338 N 
ATOM     40  H   ALA     5      64.072  43.950  50.128  1.00 99.99     0.164 HD
BRANCH  39  41
ATOM     41  CA  ALA     5      63.876  45.107  48.397  1.00  0.00     0.159 C 
ATOM     42  CB  ALA     5      64.196  46.387  49.174  1.00  0.00     0.034 C 
BRANCH  41  43
ATOM     43  C   ALA     5      65.094  44.640  47.564  1.00  0.00     0.251 C 
ATOM     44  O   ALA     5      66.224  45.079  47.775  1.00  0.00    -0.271 OA
ATOM     45  N   TYR     6      64.849  43.664  46.690  1.00  0.00    -0.337 N 
ATOM     46  H   TYR     6      64.013  43.119  46.758  1.00 99.99     0.164 HD
BRANCH  45  47
ATOM     47  CA  TYR     6      65.793  43.179  45.657  1.00  0.00     0.164 C 
BRANCH  47  48
ATOM     48  C   TYR     6      65.059  42.494  44.483  1.00  0.00     0.251 C 
ATOM     49  N   ALA     7      63.789  42.177  44.724  1.00  0.00    -0.336 N 
ATOM     50  H   ALA     7      63.374  42.385  45.608  1.00 99.99     0.164 HD
ATOM     51  O   TYR     6      65.673  42.099  43.495  1.00  0.00    -0.271 OA
BRANCH  49  52
ATOM     52  CA  ALA     7      62.853  41.570  43.758  1.00  0.00     0.168 C 
ATOM     53  CB  ALA     7      62.949  40.047  43.890  1.00  0.00     0.036 C 
BRANCH  52  54
ATOM     54  C   ALA     7      61.420  42.017  44.091  1.00  0.00     0.206 C 
ATOM     55  OXT ALA     7      61.206  43.247  43.990  1.00 99.99    -0.646 OA
ATOM     56  O   ALA     7      60.561  41.133  44.296  1.00 99.99    -0.646 OA
ENDBRANCH  52  54
ENDBRANCH  49  52
ENDBRANCH  47  48
BRANCH  47  57
ATOM     57  CB  TYR     6      66.763  42.143  46.240  1.00  0.00     0.056 C 
BRANCH  57  58
ATOM     58  CG  TYR     6      66.230  41.090  47.216  1.00  0.00    -0.044 A 
ATOM     59  CD1 TYR     6      66.318  41.197  48.601  1.00  0.00     0.011 A 
ATOM     60  CE1 TYR     6      65.973  40.115  49.404  1.00  0.00     0.037 A 
ATOM     61  CZ  TYR     6      65.545  38.925  48.826  1.00  0.00     0.065 A 
ATOM     62  CE2 TYR     6      65.438  38.823  47.445  1.00  0.00     0.037 A 
ATOM     63  CD2 TYR     6      65.785  39.905  46.649  1.00  0.00     0.011 A 
BRANCH  61  64
ATOM     64  OH  TYR     6      65.308  37.833  49.598  1.00  0.00    -0.361 OA
ATOM     65  HH  TYR     6      64.986  38.125  50.496  1.00 99.99     0.217 HD
ENDBRANCH  61  64
ENDBRANCH  57  58
ENDBRANCH  47  57
ENDBRANCH  45  47
ENDBRANCH  41  43
ENDBRANCH  39  41
ENDBRANCH  36  37
BRANCH  36  66
ATOM     66  CB  LEU     4      62.649  41.053  49.848  1.00  0.00     0.032 C 
BRANCH  66  67
ATOM     67  CG  LEU     4      61.690  40.221  48.989  1.00  0.00     0.002 C 
ATOM     68  CD1 LEU     4      62.054  40.424  47.518  1.00  0.00     0.000 C 
ATOM     69  CD2 LEU     4      61.764  38.730  49.337  1.00  0.00     0.000 C 
ENDBRANCH  66  67
ENDBRANCH  36  66
ENDBRANCH  34  36
ENDBRANCH  31  32
BRANCH  31  70
ATOM     70  CB  LYS     3      58.577  40.693  52.909  1.00  0.00     0.032 C 
BRANCH  70  71
ATOM     71  CG  LYS     3      57.484  40.572  53.979  1.00  0.00     0.004 C 
BRANCH  71  72
ATOM     72  CD  LYS     3      56.208  39.909  53.453  1.00  0.00     0.032 C 
BRANCH  72  73
ATOM     73  CE  LYS     3      54.993  40.437  54.222  1.00  0.00     0.206 C 
BRANCH  73  74
ATOM     74  NZ  LYS     3      53.736  39.809  53.785  1.00  0.00    -0.064 N 
ATOM     75  HZ3 LYS     3      52.964  40.221  54.270  1.00 99.99     0.275 HD
ATOM     76  HZ2 LYS     3      53.765  38.827  53.970  1.00 99.99     0.275 HD
ATOM     77  HZ1 LYS     3      53.620  39.954  52.801  1.00 99.99     0.275 HD
ENDBRANCH  73  74
ENDBRANCH  72  73
ENDBRANCH  71  72
ENDBRANCH  70  71
ENDBRANCH  31  70
ENDBRANCH  29  31
ENDBRANCH  18  27
ENDBRANCH  15  18
ENDBRANCH   5  14
ENDBRANCH   1   5
TORSDOF 34
ENDMDL
MODEL 7
REMARK VINA RESULT:      -4.3      1.974      2.930
REMARK WARNING: 32 MAX_TORS EXCEEDED!!!
REMARK  34 active torsions:
REMARK  status: ('A' for Active; 'I' for Inactive)
REMARK    1  A    between atoms: N_1  and  CA_2 
REMARK    2  A    between atoms: CA_2  and  CB_5 
REMARK    3  A    between atoms: CA_2  and  C_3 
REMARK       I    between atoms: C_3  and  N_16 
REMARK    4  A    between atoms: CB_5  and  CG_6 
REMARK    5  A    between atoms: CG_6  and  CD_7 
REMARK    6  A    between atoms: CD_7  and  CE_8 
REMARK    7  A    between atoms: CE_8  and  NZ_9 
REMARK    8  A    between atoms: N_16  and  CA_17 
REMARK    9  A    between atoms: CA_17  and  CB_20 
REMARK   10  A    between atoms: CA_17  and  C_18 
REMARK       I    between atoms: C_18  and  N_29 
REMARK   11  A    between atoms: CB_20  and  CG_21 
REMARK   12  A    between atoms: CG_21  and  CD_22 
REMARK   13  A    between atoms: CD_22  and  CE_23 
REMARK   14  A    between atoms: CE_23  and  NZ_24 
REMARK   15  A    between atoms: N_29  and  CA_30 
REMARK   16  A    between atoms: CA_30  and  C_31 
REMARK   17  A    between atoms: CA_30  and  CB_33 
REMARK       I    between atoms: C_31  and  N_42 
REMARK   18  A    between atoms: CB_33  and  CG_34 
REMARK   19  A    between atoms: CG_34  and  CD_35 
REMARK   20  A    between atoms: CD_35  and  CE_36 
REMARK   21  A    between atoms: CE_36  and  NZ_37 
REMARK   22  A    between atoms: N_42  and  CA_43 
REMARK   23  A    between atoms: CA_43  and  C_44 
REMARK   24  A    between atoms: CA_43  and  CB_46 
REMARK       I    between atoms: C_44  and  N_51 
REMARK   25  A    between atoms: CB_46  and  CG_47 
REMARK   26  A    between atoms: N_51  and  CA_52 
REMARK   27  A    between atoms: CA_52  and  C_53 
REMARK       I    between atoms: C_53  and  N_57 
REMARK   28  A    between atoms: N_57  and  CA_58 
REMARK   29  A    between atoms: CA_58  and  C_59 
REMARK   30  A    between atoms: CA_58  and  CB_61 
REMARK       I    between atoms: C_59  and  N_71 
REMARK   31  A    between atoms: CB_61  and  CG_62 
REMARK   32  A    between atoms: CZ_67  and  OH_68 
REMARK   33  A    between atoms: N_71  and  CA_72 
REMARK   34  A    between atoms: CA_72  and  C_73 
ROOT
ATOM      1  N   LYS     1      58.121  44.100  47.154  1.00  0.00    -0.058 N 
ATOM      2  H1  LYS     1      58.943  43.714  46.734  1.00 99.99     0.276 HD
ATOM      3  H2  LYS     1      57.875  44.929  46.689  1.00 99.99     0.276 HD
ATOM      4  H3  LYS     1      58.350  44.377  48.080  1.00 99.99     0.276 HD
ENDROOT
BRANCH   1   5
ATOM      5  CA  LYS     1      57.051  43.075  47.130  1.00  0.00     0.255 C 
BRANCH   5   6
ATOM      6  CB  LYS     1      57.381  41.908  46.171  1.00  0.00     0.040 C 
BRANCH   6   7
ATOM      7  CG  LYS     1      56.218  40.904  46.078  1.00  0.00     0.004 C 
BRANCH   7   8
ATOM      8  CD  LYS     1      56.631  39.508  45.581  1.00  0.00     0.032 C 
BRANCH   8   9
ATOM      9  CE  LYS     1      57.255  39.591  44.180  1.00  0.00     0.206 C 
BRANCH   9  10
ATOM     10  NZ  LYS     1      56.302  39.320  43.088  1.00  0.00    -0.064 N 
ATOM     11  HZ3 LYS     1      55.365  39.336  43.436  1.00 99.99     0.275 HD
ATOM     12  HZ1 LYS     1      56.397  40.024  42.383  1.00 99.99     0.275 HD
ATOM     13  HZ2 LYS     1      56.492  38.427  42.679  1.00 99.99     0.275 HD
ENDBRANCH   9  10
ENDBRANCH   8   9
ENDBRANCH   7   8
ENDBRANCH   6   7
ENDBRANCH   5   6
BRANCH   5  14
ATOM     14  C   LYS     1      56.736  42.679  48.596  1.00  0.00     0.259 C 
ATOM     15  N   LYS     2      55.472  42.696  49.052  1.00  0.00    -0.338 N 
ATOM     16  H   LYS     2      54.711  42.943  48.453  1.00 99.99     0.164 HD
ATOM     17  O   LYS     1      57.619  42.037  49.159  1.00  0.00    -0.271 OA
BRANCH  15  18
ATOM     18  CA  LYS     2      55.050  42.400  50.451  1.00  0.00     0.159 C 
BRANCH  18  19
ATOM     19  CB  LYS     2      54.480  40.979  50.601  1.00  0.00     0.032 C 
BRANCH  19  20
ATOM     20  CG  LYS     2      54.353  40.282  49.240  1.00  0.00     0.004 C 
BRANCH  20  21
ATOM     21  CD  LYS     2      55.260  39.052  49.118  1.00  0.00     0.032 C 
BRANCH  21  22
ATOM     22  CE  LYS     2      55.649  38.519  50.501  1.00  0.00     0.206 C 
BRANCH  22  23
ATOM     23  NZ  LYS     2      54.661  37.564  51.035  1.00  0.00    -0.064 N 
ATOM     24  HZ1 LYS     2      54.285  37.919  51.891  1.00 99.99     0.275 HD
ATOM     25  HZ2 LYS     2      53.917  37.436  50.379  1.00 99.99     0.275 HD
ATOM     26  HZ3 LYS     2      55.104  36.686  51.216  1.00 99.99     0.275 HD
ENDBRANCH  22  23
ENDBRANCH  21  22
ENDBRANCH  20  21
ENDBRANCH  19  20
ENDBRANCH  18  19
BRANCH  18  27
ATOM     27  C   LYS     2      56.013  42.776  51.601  1.00  0.00     0.251 C 
ATOM     28  O   LYS     2      55.965  43.919  52.050  1.00  0.00    -0.271 OA
ATOM     29  N   LYS     3      56.979  41.910  51.935  1.00  0.00    -0.338 N 
ATOM     30  H   LYS     3      56.999  40.991  51.547  1.00 99.99     0.164 HD
BRANCH  29  31
ATOM     31  CA  LYS     3      58.055  42.176  52.925  1.00  0.00     0.159 C 
BRANCH  31  32
ATOM     32  C   LYS     3      59.477  42.312  52.321  1.00  0.00     0.251 C 
ATOM     33  O   LYS     3      60.232  43.184  52.748  1.00  0.00    -0.271 OA
ATOM     34  N   LEU     4      59.716  41.652  51.185  1.00  0.00    -0.338 N 
ATOM     35  H   LEU     4      58.979  41.164  50.709  1.00 99.99     0.164 HD
BRANCH  34  36
ATOM     36  CA  LEU     4      61.003  41.648  50.445  1.00  0.00     0.159 C 
BRANCH  36  37
ATOM     37  C   LEU     4      61.297  42.879  49.554  1.00  0.00     0.251 C 
ATOM     38  O   LEU     4      60.660  43.070  48.520  1.00  0.00    -0.271 OA
ATOM     39  N   ALA     5      62.081  43.808  50.095  1.00  0.00    -0.338 N 
ATOM     40  H   ALA     5      62.321  43.777  51.068  1.00 99.99     0.164 HD
BRANCH  39  41
ATOM     41  CA  ALA     5      62.589  45.007  49.398  1.00  0.00     0.159 C 
ATOM     42  CB  ALA     5      63.005  46.021  50.469  1.00  0.00     0.034 C 
BRANCH  41  43
ATOM     43  C   ALA     5      63.765  44.693  48.441  1.00  0.00     0.251 C 
ATOM     44  O   ALA     5      64.811  45.338  48.474  1.00  0.00    -0.271 OA
ATOM     45  N   TYR     6      63.601  43.619  47.668  1.00  0.00    -0.337 N 
ATOM     46  H   TYR     6      62.893  42.944  47.879  1.00 99.99     0.164 HD
BRANCH  45  47
ATOM     47  CA  TYR     6      64.488  43.223  46.550  1.00  0.00     0.164 C 
BRANCH  47  48
ATOM     48  C   TYR     6      63.687  42.867  45.279  1.00  0.00     0.251 C 
ATOM     49  N   ALA     7      62.536  42.235  45.498  1.00  0.00    -0.336 N 
ATOM     50  H   ALA     7      62.243  42.027  46.429  1.00 99.99     0.164 HD
ATOM     51  O   TYR     6      64.186  42.983  44.161  1.00  0.00    -0.271 OA
BRANCH  49  52
ATOM     52  CA  ALA     7      61.560  41.837  44.466  1.00  0.00     0.168 C 
ATOM     53  CB  ALA     7      60.713  40.689  45.025  1.00  0.00     0.036 C 
BRANCH  52  54
ATOM     54  C   ALA     7      60.644  43.030  44.146  1.00  0.00     0.206 C 
ATOM     55  OXT ALA     7      60.214  43.656  45.141  1.00 99.99    -0.646 OA
ATOM     56  O   ALA     7      60.513  43.365  42.949  1.00 99.99    -0.646 OA
ENDBRANCH  52  54
ENDBRANCH  49  52
ENDBRANCH  47  48
BRANCH  47  57
ATOM     57  CB  TYR     6      65.314  41.983  46.916  1.00  0.00     0.056 C 
BRANCH  57  58
ATOM     58  CG  TYR     6      66.842  42.061  46.857  1.00  0.00    -0.044 A 
ATOM     59  CD1 TYR     6      67.693  41.079  47.357  1.00  0.00     0.011 A 
ATOM     60  CE1 TYR     6      69.062  41.315  47.424  1.00  0.00     0.037 A 
ATOM     61  CZ  TYR     6      69.582  42.531  46.998  1.00  0.00     0.065 A 
ATOM     62  CE2 TYR     6      68.738  43.505  46.481  1.00  0.00     0.037 A 
ATOM     63  CD2 TYR     6      67.373  43.265  46.418  1.00  0.00     0.011 A 
BRANCH  61  64
ATOM     64  OH  TYR     6      70.903  42.808  47.160  1.00  0.00    -0.361 OA
ATOM     65  HH  TYR     6      71.279  43.143  46.299  1.00 99.99     0.217 HD
ENDBRANCH  61  64
ENDBRANCH  57  58
ENDBRANCH  47  57
ENDBRANCH  45  47
ENDBRANCH  41  43
ENDBRANCH  39  41
ENDBRANCH  36  37
BRANCH  36  66
ATOM     66  CB  LEU     4      61.074  40.387  49.573  1.00  0.00     0.032 C 
BRANCH  66  67
ATOM     67  CG  LEU     4      59.930  39.387  49.776  1.00  0.00     0.002 C 
ATOM     68  CD1 LEU     4      59.258  39.136  48.425  1.00  0.00     0.000 C 
ATOM     69  CD2 LEU     4      60.432  38.060  50.355  1.00  0.00     0.000 C 
ENDBRANCH  66  67
ENDBRANCH  36  66
ENDBRANCH  34  36
ENDBRANCH  31  32
BRANCH  31  70
ATOM     70  CB  LYS     3      58.013  41.073  53.997  1.00  0.00     0.032 C 
BRANCH  70  71
ATOM     71  CG  LYS     3      57.472  39.740  53.464  1.00  0.00     0.004 C 
BRANCH  71  72
ATOM     72  CD  LYS     3      56.407  39.124  54.376  1.00  0.00     0.032 C 
BRANCH  72  73
ATOM     73  CE  LYS     3      55.517  40.227  54.956  1.00  0.00     0.206 C 
BRANCH  73  74
ATOM     74  NZ  LYS     3      55.477  40.203  56.426  1.00  0.00    -0.064 N 
ATOM     75  HZ3 LYS     3      55.289  41.120  56.777  1.00 99.99     0.275 HD
ATOM     76  HZ2 LYS     3      56.353  39.879  56.784  1.00 99.99     0.275 HD
ATOM     77  HZ1 LYS     3      54.752  39.581  56.726  1.00 99.99     0.275 HD
ENDBRANCH  73  74
ENDBRANCH  72  73
ENDBRANCH  71  72
ENDBRANCH  70  71
ENDBRANCH  31  70
ENDBRANCH  29  31
ENDBRANCH  18  27
ENDBRANCH  15  18
ENDBRANCH   5  14
ENDBRANCH   1   5
TORSDOF 34
ENDMDL
MODEL 8
REMARK VINA RESULT:      -4.3      2.011      3.271
REMARK WARNING: 32 MAX_TORS EXCEEDED!!!
REMARK  34 active torsions:
REMARK  status: ('A' for Active; 'I' for Inactive)
REMARK    1  A    between atoms: N_1  and  CA_2 
REMARK    2  A    between atoms: CA_2  and  CB_5 
REMARK    3  A    between atoms: CA_2  and  C_3 
REMARK       I    between atoms: C_3  and  N_16 
REMARK    4  A    between atoms: CB_5  and  CG_6 
REMARK    5  A    between atoms: CG_6  and  CD_7 
REMARK    6  A    between atoms: CD_7  and  CE_8 
REMARK    7  A    between atoms: CE_8  and  NZ_9 
REMARK    8  A    between atoms: N_16  and  CA_17 
REMARK    9  A    between atoms: CA_17  and  CB_20 
REMARK   10  A    between atoms: CA_17  and  C_18 
REMARK       I    between atoms: C_18  and  N_29 
REMARK   11  A    between atoms: CB_20  and  CG_21 
REMARK   12  A    between atoms: CG_21  and  CD_22 
REMARK   13  A    between atoms: CD_22  and  CE_23 
REMARK   14  A    between atoms: CE_23  and  NZ_24 
REMARK   15  A    between atoms: N_29  and  CA_30 
REMARK   16  A    between atoms: CA_30  and  C_31 
REMARK   17  A    between atoms: CA_30  and  CB_33 
REMARK       I    between atoms: C_31  and  N_42 
REMARK   18  A    between atoms: CB_33  and  CG_34 
REMARK   19  A    between atoms: CG_34  and  CD_35 
REMARK   20  A    between atoms: CD_35  and  CE_36 
REMARK   21  A    between atoms: CE_36  and  NZ_37 
REMARK   22  A    between atoms: N_42  and  CA_43 
REMARK   23  A    between atoms: CA_43  and  C_44 
REMARK   24  A    between atoms: CA_43  and  CB_46 
REMARK       I    between atoms: C_44  and  N_51 
REMARK   25  A    between atoms: CB_46  and  CG_47 
REMARK   26  A    between atoms: N_51  and  CA_52 
REMARK   27  A    between atoms: CA_52  and  C_53 
REMARK       I    between atoms: C_53  and  N_57 
REMARK   28  A    between atoms: N_57  and  CA_58 
REMARK   29  A    between atoms: CA_58  and  C_59 
REMARK   30  A    between atoms: CA_58  and  CB_61 
REMARK       I    between atoms: C_59  and  N_71 
REMARK   31  A    between atoms: CB_61  and  CG_62 
REMARK   32  A    between atoms: CZ_67  and  OH_68 
REMARK   33  A    between atoms: N_71  and  CA_72 
REMARK   34  A    between atoms: CA_72  and  C_73 
ROOT
ATOM      1  N   LYS     1      59.113  43.623  46.864  1.00  0.00    -0.058 N 
ATOM      2  H1  LYS     1      59.271  43.418  47.830  1.00 99.99     0.276 HD
ATOM      3  H2  LYS     1      59.803  43.188  46.319  1.00 99.99     0.276 HD
ATOM      4  H3  LYS     1      59.250  44.598  46.731  1.00 99.99     0.276 HD
ENDROOT
BRANCH   1   5
ATOM      5  CA  LYS     1      57.736  43.204  46.511  1.00  0.00     0.255 C 
BRANCH   5   6
ATOM      6  CB  LYS     1      57.676  41.736  46.031  1.00  0.00     0.040 C 
BRANCH   6   7
ATOM      7  CG  LYS     1      58.538  41.514  44.776  1.00  0.00     0.004 C 
BRANCH   7   8
ATOM      8  CD  LYS     1      59.539  40.353  44.897  1.00  0.00     0.032 C 
BRANCH   8   9
ATOM      9  CE  LYS     1      59.888  40.087  46.369  1.00  0.00     0.206 C 
BRANCH   9  10
ATOM     10  NZ  LYS     1      61.128  40.749  46.815  1.00  0.00    -0.064 N 
ATOM     11  HZ3 LYS     1      61.405  40.398  47.709  1.00 99.99     0.275 HD
ATOM     12  HZ1 LYS     1      61.859  40.564  46.155  1.00 99.99     0.275 HD
ATOM     13  HZ2 LYS     1      60.990  41.738  46.871  1.00 99.99     0.275 HD
ENDBRANCH   9  10
ENDBRANCH   8   9
ENDBRANCH   7   8
ENDBRANCH   6   7
ENDBRANCH   5   6
BRANCH   5  14
ATOM     14  C   LYS     1      56.807  43.566  47.699  1.00  0.00     0.259 C 
ATOM     15  N   LYS     2      56.295  42.604  48.485  1.00  0.00    -0.338 N 
ATOM     16  H   LYS     2      56.518  41.641  48.334  1.00 99.99     0.164 HD
ATOM     17  O   LYS     1      56.869  44.737  48.066  1.00  0.00    -0.271 OA
BRANCH  15  18
ATOM     18  CA  LYS     2      55.344  42.818  49.613  1.00  0.00     0.159 C 
BRANCH  18  19
ATOM     19  CB  LYS     2      54.051  42.001  49.452  1.00  0.00     0.032 C 
BRANCH  19  20
ATOM     20  CG  LYS     2      54.288  40.745  48.601  1.00  0.00     0.004 C 
BRANCH  20  21
ATOM     21  CD  LYS     2      54.425  39.474  49.447  1.00  0.00     0.032 C 
BRANCH  21  22
ATOM     22  CE  LYS     2      55.869  38.960  49.432  1.00  0.00     0.206 C 
BRANCH  22  23
ATOM     23  NZ  LYS     2      56.075  37.889  48.441  1.00  0.00    -0.064 N 
ATOM     24  HZ1 LYS     2      55.574  37.071  48.727  1.00 99.99     0.275 HD
ATOM     25  HZ2 LYS     2      55.743  38.181  47.545  1.00 99.99     0.275 HD
ATOM     26  HZ3 LYS     2      57.048  37.666  48.383  1.00 99.99     0.275 HD
ENDBRANCH  22  23
ENDBRANCH  21  22
ENDBRANCH  20  21
ENDBRANCH  19  20
ENDBRANCH  18  19
BRANCH  18  27
ATOM     27  C   LYS     2      55.899  42.772  51.056  1.00  0.00     0.251 C 
ATOM     28  O   LYS     2      55.688  43.732  51.793  1.00  0.00    -0.271 OA
ATOM     29  N   LYS     3      56.736  41.780  51.387  1.00  0.00    -0.338 N 
ATOM     30  H   LYS     3      56.897  41.016  50.765  1.00 99.99     0.164 HD
BRANCH  29  31
ATOM     31  CA  LYS     3      57.451  41.667  52.685  1.00  0.00     0.159 C 
BRANCH  31  32
ATOM     32  C   LYS     3      58.882  42.263  52.696  1.00  0.00     0.251 C 
ATOM     33  O   LYS     3      59.124  43.236  53.408  1.00  0.00    -0.271 OA
ATOM     34  N   LEU     4      59.712  41.858  51.731  1.00  0.00    -0.338 N 
ATOM     35  H   LEU     4      59.387  41.263  50.990  1.00 99.99     0.164 HD
BRANCH  34  36
ATOM     36  CA  LEU     4      61.117  42.305  51.560  1.00  0.00     0.159 C 
BRANCH  36  37
ATOM     37  C   LEU     4      61.452  43.066  50.255  1.00  0.00     0.251 C 
ATOM     38  O   LEU     4      60.963  42.717  49.183  1.00  0.00    -0.271 OA
ATOM     39  N   ALA     5      62.080  44.228  50.412  1.00  0.00    -0.338 N 
ATOM     40  H   ALA     5      62.176  44.645  51.319  1.00 99.99     0.164 HD
BRANCH  39  41
ATOM     41  CA  ALA     5      62.600  45.072  49.316  1.00  0.00     0.159 C 
ATOM     42  CB  ALA     5      62.416  46.534  49.733  1.00  0.00     0.034 C 
BRANCH  41  43
ATOM     43  C   ALA     5      64.080  44.771  48.977  1.00  0.00     0.251 C 
ATOM     44  O   ALA     5      64.999  45.184  49.682  1.00  0.00    -0.271 OA
ATOM     45  N   TYR     6      64.274  43.954  47.941  1.00  0.00    -0.337 N 
ATOM     46  H   TYR     6      63.524  43.393  47.589  1.00 99.99     0.164 HD
BRANCH  45  47
ATOM     47  CA  TYR     6      65.582  43.665  47.309  1.00  0.00     0.164 C 
BRANCH  47  48
ATOM     48  C   TYR     6      65.418  43.134  45.868  1.00  0.00     0.251 C 
ATOM     49  N   ALA     7      64.175  42.795  45.531  1.00  0.00    -0.336 N 
ATOM     50  H   ALA     7      63.429  42.894  46.187  1.00 99.99     0.164 HD
ATOM     51  O   TYR     6      66.397  42.861  45.177  1.00  0.00    -0.271 OA
BRANCH  49  52
ATOM     52  CA  ALA     7      63.740  42.316  44.206  1.00  0.00     0.168 C 
ATOM     53  CB  ALA     7      63.812  40.786  44.200  1.00  0.00     0.036 C 
BRANCH  52  54
ATOM     54  C   ALA     7      62.286  42.754  43.961  1.00  0.00     0.206 C 
ATOM     55  OXT ALA     7      61.845  42.525  42.811  1.00 99.99    -0.646 OA
ATOM     56  O   ALA     7      61.624  43.166  44.937  1.00 99.99    -0.646 OA
ENDBRANCH  52  54
ENDBRANCH  49  52
ENDBRANCH  47  48
BRANCH  47  57
ATOM     57  CB  TYR     6      66.348  42.592  48.093  1.00  0.00     0.056 C 
BRANCH  57  58
ATOM     58  CG  TYR     6      65.799  41.163  48.133  1.00  0.00    -0.044 A 
ATOM     59  CD1 TYR     6      66.328  40.105  47.400  1.00  0.00     0.011 A 
ATOM     60  CE1 TYR     6      65.658  38.887  47.356  1.00  0.00     0.037 A 
ATOM     61  CZ  TYR     6      64.458  38.725  48.039  1.00  0.00     0.065 A 
ATOM     62  CE2 TYR     6      63.938  39.774  48.787  1.00  0.00     0.037 A 
ATOM     63  CD2 TYR     6      64.610  40.987  48.825  1.00  0.00     0.011 A 
BRANCH  61  64
ATOM     64  OH  TYR     6      63.747  37.575  47.914  1.00  0.00    -0.361 OA
ATOM     65  HH  TYR     6      64.002  36.946  48.646  1.00 99.99     0.217 HD
ENDBRANCH  61  64
ENDBRANCH  57  58
ENDBRANCH  47  57
ENDBRANCH  45  47
ENDBRANCH  41  43
ENDBRANCH  39  41
ENDBRANCH  36  37
BRANCH  36  66
ATOM     66  CB  LEU     4      62.044  41.086  51.665  1.00  0.00     0.032 C 
BRANCH  66  67
ATOM     67  CG  LEU     4      63.066  41.137  52.806  1.00  0.00     0.002 C 
ATOM     68  CD1 LEU     4      62.315  41.327  54.124  1.00  0.00     0.000 C 
ATOM     69  CD2 LEU     4      63.908  39.859  52.873  1.00  0.00     0.000 C 
ENDBRANCH  66  67
ENDBRANCH  36  66
ENDBRANCH  34  36
ENDBRANCH  31  32
BRANCH  31  70
ATOM     70  CB  LYS     3      57.465  40.186  53.105  1.00  0.00     0.032 C 
BRANCH  70  71
ATOM     71  CG  LYS     3      58.124  39.959  54.472  1.00  0.00     0.004 C 
BRANCH  71  72
ATOM     72  CD  LYS     3      57.306  40.540  55.629  1.00  0.00     0.032 C 
BRANCH  72  73
ATOM     73  CE  LYS     3      55.936  39.859  55.691  1.00  0.00     0.206 C 
BRANCH  73  74
ATOM     74  NZ  LYS     3      55.478  39.643  57.073  1.00  0.00    -0.064 N 
ATOM     75  HZ3 LYS     3      56.190  39.177  57.599  1.00 99.99     0.275 HD
ATOM     76  HZ2 LYS     3      54.644  39.091  57.072  1.00 99.99     0.275 HD
ATOM     77  HZ1 LYS     3      55.284  40.529  57.497  1.00 99.99     0.275 HD
ENDBRANCH  73  74
ENDBRANCH  72  73
ENDBRANCH  71  72
ENDBRANCH  70  71
ENDBRANCH  31  70
ENDBRANCH  29  31
ENDBRANCH  18  27
ENDBRANCH  15  18
ENDBRANCH   5  14
ENDBRANCH   1   5
TORSDOF 34
ENDMDL
MODEL 9
REMARK VINA RESULT:      -4.3      2.595      5.804
REMARK WARNING: 32 MAX_TORS EXCEEDED!!!
REMARK  34 active torsions:
REMARK  status: ('A' for Active; 'I' for Inactive)
REMARK    1  A    between atoms: N_1  and  CA_2 
REMARK    2  A    between atoms: CA_2  and  CB_5 
REMARK    3  A    between atoms: CA_2  and  C_3 
REMARK       I    between atoms: C_3  and  N_16 
REMARK    4  A    between atoms: CB_5  and  CG_6 
REMARK    5  A    between atoms: CG_6  and  CD_7 
REMARK    6  A    between atoms: CD_7  and  CE_8 
REMARK    7  A    between atoms: CE_8  and  NZ_9 
REMARK    8  A    between atoms: N_16  and  CA_17 
REMARK    9  A    between atoms: CA_17  and  CB_20 
REMARK   10  A    between atoms: CA_17  and  C_18 
REMARK       I    between atoms: C_18  and  N_29 
REMARK   11  A    between atoms: CB_20  and  CG_21 
REMARK   12  A    between atoms: CG_21  and  CD_22 
REMARK   13  A    between atoms: CD_22  and  CE_23 
REMARK   14  A    between atoms: CE_23  and  NZ_24 
REMARK   15  A    between atoms: N_29  and  CA_30 
REMARK   16  A    between atoms: CA_30  and  C_31 
REMARK   17  A    between atoms: CA_30  and  CB_33 
REMARK       I    between atoms: C_31  and  N_42 
REMARK   18  A    between atoms: CB_33  and  CG_34 
REMARK   19  A    between atoms: CG_34  and  CD_35 
REMARK   20  A    between atoms: CD_35  and  CE_36 
REMARK   21  A    between atoms: CE_36  and  NZ_37 
REMARK   22  A    between atoms: N_42  and  CA_43 
REMARK   23  A    between atoms: CA_43  and  C_44 
REMARK   24  A    between atoms: CA_43  and  CB_46 
REMARK       I    between atoms: C_44  and  N_51 
REMARK   25  A    between atoms: CB_46  and  CG_47 
REMARK   26  A    between atoms: N_51  and  CA_52 
REMARK   27  A    between atoms: CA_52  and  C_53 
REMARK       I    between atoms: C_53  and  N_57 
REMARK   28  A    between atoms: N_57  and  CA_58 
REMARK   29  A    between atoms: CA_58  and  C_59 
REMARK   30  A    between atoms: CA_58  and  CB_61 
REMARK       I    between atoms: C_59  and  N_71 
REMARK   31  A    between atoms: CB_61  and  CG_62 
REMARK   32  A    between atoms: CZ_67  and  OH_68 
REMARK   33  A    between atoms: N_71  and  CA_72 
REMARK   34  A    between atoms: CA_72  and  C_73 
ROOT
ATOM      1  N   LYS     1      58.902  39.695  45.146  1.00  0.00    -0.058 N 
ATOM      2  H1  LYS     1      59.783  39.845  45.594  1.00 99.99     0.276 HD
ATOM      3  H2  LYS     1      58.464  38.911  45.542  1.00 99.99     0.276 HD
ATOM      4  H3  LYS     1      59.076  39.448  44.200  1.00 99.99     0.276 HD
ENDROOT
BRANCH   1   5
ATOM      5  CA  LYS     1      58.097  40.934  45.258  1.00  0.00     0.255 C 
BRANCH   5   6
ATOM      6  CB  LYS     1      58.164  41.793  43.974  1.00  0.00     0.040 C 
BRANCH   6   7
ATOM      7  CG  LYS     1      58.903  43.120  44.217  1.00  0.00     0.004 C 
BRANCH   7   8
ATOM      8  CD  LYS     1      60.212  43.266  43.423  1.00  0.00     0.032 C 
BRANCH   8   9
ATOM      9  CE  LYS     1      61.291  42.322  43.973  1.00  0.00     0.206 C 
BRANCH   9  10
ATOM     10  NZ  LYS     1      62.621  42.948  44.095  1.00  0.00    -0.064 N 
ATOM     11  HZ3 LYS     1      63.332  42.245  44.124  1.00 99.99     0.275 HD
ATOM     12  HZ1 LYS     1      62.784  43.539  43.304  1.00 99.99     0.275 HD
ATOM     13  HZ2 LYS     1      62.666  43.503  44.926  1.00 99.99     0.275 HD
ENDBRANCH   9  10
ENDBRANCH   8   9
ENDBRANCH   7   8
ENDBRANCH   6   7
ENDBRANCH   5   6
BRANCH   5  14
ATOM     14  C   LYS     1      56.675  40.540  45.735  1.00  0.00     0.259 C 
ATOM     15  N   LYS     2      56.510  39.675  46.751  1.00  0.00    -0.338 N 
ATOM     16  H   LYS     2      57.297  39.287  47.230  1.00 99.99     0.164 HD
ATOM     17  O   LYS     1      55.781  41.306  45.386  1.00  0.00    -0.271 OA
BRANCH  15  18
ATOM     18  CA  LYS     2      55.203  39.171  47.258  1.00  0.00     0.159 C 
BRANCH  18  19
ATOM     19  CB  LYS     2      55.196  37.644  47.443  1.00  0.00     0.032 C 
BRANCH  19  20
ATOM     20  CG  LYS     2      55.972  36.942  46.319  1.00  0.00     0.004 C 
BRANCH  20  21
ATOM     21  CD  LYS     2      55.107  36.673  45.083  1.00  0.00     0.032 C 
BRANCH  21  22
ATOM     22  CE  LYS     2      55.557  37.538  43.900  1.00  0.00     0.206 C 
BRANCH  22  23
ATOM     23  NZ  LYS     2      54.690  38.712  43.698  1.00  0.00    -0.064 N 
ATOM     24  HZ1 LYS     2      53.756  38.406  43.508  1.00 99.99     0.275 HD
ATOM     25  HZ2 LYS     2      54.687  39.283  44.518  1.00 99.99     0.275 HD
ATOM     26  HZ3 LYS     2      55.019  39.245  42.919  1.00 99.99     0.275 HD
ENDBRANCH  22  23
ENDBRANCH  21  22
ENDBRANCH  20  21
ENDBRANCH  19  20
ENDBRANCH  18  19
BRANCH  18  27
ATOM     27  C   LYS     2      54.542  39.914  48.442  1.00  0.00     0.251 C 
ATOM     28  O   LYS     2      53.802  40.863  48.194  1.00  0.00    -0.271 OA
ATOM     29  N   LYS     3      54.940  39.616  49.686  1.00  0.00    -0.338 N 
ATOM     30  H   LYS     3      55.550  38.845  49.858  1.00 99.99     0.164 HD
BRANCH  29  31
ATOM     31  CA  LYS     3      54.498  40.326  50.914  1.00  0.00     0.159 C 
BRANCH  31  32
ATOM     32  C   LYS     3      55.596  40.507  51.994  1.00  0.00     0.251 C 
ATOM     33  O   LYS     3      55.402  41.285  52.926  1.00  0.00    -0.271 OA
ATOM     34  N   LEU     4      56.805  40.013  51.714  1.00  0.00    -0.338 N 
ATOM     35  H   LEU     4      57.004  39.622  50.811  1.00 99.99     0.164 HD
BRANCH  34  36
ATOM     36  CA  LEU     4      57.990  40.080  52.605  1.00  0.00     0.159 C 
BRANCH  36  37
ATOM     37  C   LEU     4      58.885  41.337  52.481  1.00  0.00     0.251 C 
ATOM     38  O   LEU     4      58.396  42.463  52.553  1.00  0.00    -0.271 OA
ATOM     39  N   ALA     5      60.195  41.120  52.541  1.00  0.00    -0.338 N 
ATOM     40  H   ALA     5      60.558  40.225  52.811  1.00 99.99     0.164 HD
BRANCH  39  41
ATOM     41  CA  ALA     5      61.241  42.143  52.332  1.00  0.00     0.159 C 
ATOM     42  CB  ALA     5      62.245  42.017  53.482  1.00  0.00     0.034 C 
BRANCH  41  43
ATOM     43  C   ALA     5      61.945  42.011  50.960  1.00  0.00     0.251 C 
ATOM     44  O   ALA     5      62.949  41.316  50.816  1.00  0.00    -0.271 OA
ATOM     45  N   TYR     6      61.329  42.612  49.942  1.00  0.00    -0.337 N 
ATOM     46  H   TYR     6      60.373  42.896  50.023  1.00 99.99     0.164 HD
BRANCH  45  47
ATOM     47  CA  TYR     6      61.889  42.789  48.582  1.00  0.00     0.164 C 
BRANCH  47  48
ATOM     48  C   TYR     6      62.810  44.026  48.497  1.00  0.00     0.251 C 
ATOM     49  N   ALA     7      64.035  43.784  48.035  1.00  0.00    -0.336 N 
ATOM     50  H   ALA     7      64.302  42.859  47.770  1.00 99.99     0.164 HD
ATOM     51  O   TYR     6      62.487  45.095  49.011  1.00  0.00    -0.271 OA
BRANCH  49  52
ATOM     52  CA  ALA     7      65.085  44.793  47.803  1.00  0.00     0.168 C 
ATOM     53  CB  ALA     7      66.097  44.706  48.950  1.00  0.00     0.036 C 
BRANCH  52  54
ATOM     54  C   ALA     7      65.799  44.487  46.476  1.00  0.00     0.206 C 
ATOM     55  OXT ALA     7      66.989  44.870  46.408  1.00 99.99    -0.646 OA
ATOM     56  O   ALA     7      65.203  43.775  45.639  1.00 99.99    -0.646 OA
ENDBRANCH  52  54
ENDBRANCH  49  52
ENDBRANCH  47  48
BRANCH  47  57
ATOM     57  CB  TYR     6      60.775  42.993  47.549  1.00  0.00     0.056 C 
BRANCH  57  58
ATOM     58  CG  TYR     6      59.323  43.093  48.028  1.00  0.00    -0.044 A 
ATOM     59  CD1 TYR     6      58.693  42.129  48.810  1.00  0.00     0.011 A 
ATOM     60  CE1 TYR     6      57.325  42.213  49.046  1.00  0.00     0.037 A 
ATOM     61  CZ  TYR     6      56.585  43.255  48.499  1.00  0.00     0.065 A 
ATOM     62  CE2 TYR     6      57.215  44.228  47.735  1.00  0.00     0.037 A 
ATOM     63  CD2 TYR     6      58.579  44.138  47.501  1.00  0.00     0.011 A 
BRANCH  61  64
ATOM     64  OH  TYR     6      55.233  43.283  48.638  1.00  0.00    -0.361 OA
ATOM     65  HH  TYR     6      54.807  42.978  47.789  1.00 99.99     0.217 HD
ENDBRANCH  61  64
ENDBRANCH  57  58
ENDBRANCH  47  57
ENDBRANCH  45  47
ENDBRANCH  41  43
ENDBRANCH  39  41
ENDBRANCH  36  37
BRANCH  36  66
ATOM     66  CB  LEU     4      58.861  38.838  52.372  1.00  0.00     0.032 C 
BRANCH  66  67
ATOM     67  CG  LEU     4      58.633  38.120  51.037  1.00  0.00     0.002 C 
ATOM     68  CD1 LEU     4      59.695  38.593  50.043  1.00  0.00     0.000 C 
ATOM     69  CD2 LEU     4      58.711  36.598  51.189  1.00  0.00     0.000 C 
ENDBRANCH  66  67
ENDBRANCH  36  66
ENDBRANCH  34  36
ENDBRANCH  31  32
BRANCH  31  70
ATOM     70  CB  LYS     3      53.275  39.590  51.488  1.00  0.00     0.032 C 
BRANCH  70  71
ATOM     71  CG  LYS     3      53.595  38.158  51.939  1.00  0.00     0.004 C 
BRANCH  71  72
ATOM     72  CD  LYS     3      53.438  37.962  53.449  1.00  0.00     0.032 C 
BRANCH  72  73
ATOM     73  CE  LYS     3      52.437  36.836  53.725  1.00  0.00     0.206 C 
BRANCH  73  74
ATOM     74  NZ  LYS     3      51.540  36.590  52.585  1.00  0.00    -0.064 N 
ATOM     75  HZ3 LYS     3      51.462  35.606  52.420  1.00 99.99     0.275 HD
ATOM     76  HZ2 LYS     3      51.898  37.041  51.768  1.00 99.99     0.275 HD
ATOM     77  HZ1 LYS     3      50.633  36.961  52.794  1.00 99.99     0.275 HD
ENDBRANCH  73  74
ENDBRANCH  72  73
ENDBRANCH  71  72
ENDBRANCH  70  71
ENDBRANCH  31  70
ENDBRANCH  29  31
ENDBRANCH  18  27
ENDBRANCH  15  18
ENDBRANCH   5  14
ENDBRANCH   1   5
TORSDOF 34
ENDMDL
