MODEL 1
REMARK VINA RESULT:      -4.5      0.000      0.000
REMARK WARNING: 32 MAX_TORS EXCEEDED!!!
REMARK  34 active torsions:
REMARK  status: ('A' for Active; 'I' for Inactive)
REMARK    1  A    between atoms: N_1  and  CA_2 
REMARK    2  A    between atoms: CA_2  and  C_3 
REMARK    3  A    between atoms: CA_2  and  CB_5 
REMARK       I    between atoms: C_3  and  N_16 
REMARK    4  A    between atoms: CB_5  and  CG_6 
REMARK    5  A    between atoms: CG_6  and  CD_7 
REMARK    6  A    between atoms: CD_7  and  CE_8 
REMARK    7  A    between atoms: CE_8  and  NZ_9 
REMARK    8  A    between atoms: N_16  and  CA_17 
REMARK    9  A    between atoms: CA_17  and  C_18 
REMARK   10  A    between atoms: CA_17  and  CB_20 
REMARK       I    between atoms: C_18  and  N_29 
REMARK   11  A    between atoms: CB_20  and  CG_21 
REMARK   12  A    between atoms: CG_21  and  CD_22 
REMARK   13  A    between atoms: CD_22  and  CE_23 
REMARK   14  A    between atoms: CE_23  and  NZ_24 
REMARK   15  A    between atoms: N_29  and  CA_30 
REMARK   16  A    between atoms: CA_30  and  C_31 
REMARK   17  A    between atoms: CA_30  and  CB_33 
REMARK       I    between atoms: C_31  and  N_42 
REMARK   18  A    between atoms: CB_33  and  CG_34 
REMARK   19  A    between atoms: CG_34  and  CD_35 
REMARK   20  A    between atoms: CD_35  and  CE_36 
REMARK   21  A    between atoms: CE_36  and  NZ_37 
REMARK   22  A    between atoms: N_42  and  CA_43 
REMARK   23  A    between atoms: CA_43  and  CB_46 
REMARK   24  A    between atoms: CA_43  and  C_44 
REMARK       I    between atoms: C_44  and  N_51 
REMARK   25  A    between atoms: CB_46  and  CG_47 
REMARK   26  A    between atoms: N_51  and  CA_52 
REMARK   27  A    between atoms: CA_52  and  C_53 
REMARK       I    between atoms: C_53  and  N_57 
REMARK   28  A    between atoms: N_57  and  CA_58 
REMARK   29  A    between atoms: CA_58  and  C_59 
REMARK   30  A    between atoms: CA_58  and  CB_61 
REMARK       I    between atoms: C_59  and  N_71 
REMARK   31  A    between atoms: CB_61  and  CG_62 
REMARK   32  A    between atoms: CZ_67  and  OH_68 
REMARK   33  A    between atoms: N_71  and  CA_72 
REMARK   34  A    between atoms: CA_72  and  C_73 
ROOT
ATOM      1  N   LYS     1      62.126  43.259  47.072  1.00  0.00    -0.058 N 
ATOM      2  H1  LYS     1      61.597  43.801  46.418  1.00 99.99     0.276 HD
ATOM      3  H2  LYS     1      63.063  43.547  47.054  1.00 99.99     0.276 HD
ATOM      4  H3  LYS     1      62.134  42.317  46.754  1.00 99.99     0.276 HD
ENDROOT
BRANCH   1   5
ATOM      5  CA  LYS     1      61.497  43.386  48.408  1.00  0.00     0.255 C 
BRANCH   5   6
ATOM      6  C   LYS     1      59.992  43.044  48.260  1.00  0.00     0.259 C 
ATOM      7  N   LYS     2      59.368  43.201  47.080  1.00  0.00    -0.338 N 
ATOM      8  H   LYS     2      59.862  43.533  46.277  1.00 99.99     0.164 HD
ATOM      9  O   LYS     1      59.538  42.316  49.141  1.00  0.00    -0.271 OA
BRANCH   7  10
ATOM     10  CA  LYS     2      57.920  42.957  46.823  1.00  0.00     0.159 C 
BRANCH  10  11
ATOM     11  C   LYS     2      56.895  43.484  47.856  1.00  0.00     0.251 C 
ATOM     12  N   LYS     3      56.378  42.620  48.739  1.00  0.00    -0.338 N 
ATOM     13  H   LYS     3      56.541  41.638  48.652  1.00 99.99     0.164 HD
ATOM     14  O   LYS     2      56.725  44.696  47.941  1.00  0.00    -0.271 OA
BRANCH  12  15
ATOM     15  CA  LYS     3      55.483  42.989  49.866  1.00  0.00     0.159 C 
BRANCH  15  16
ATOM     16  C   LYS     3      56.179  43.083  51.250  1.00  0.00     0.251 C 
ATOM     17  O   LYS     3      55.809  43.937  52.053  1.00  0.00    -0.271 OA
ATOM     18  N   LEU     4      57.323  42.411  51.396  1.00  0.00    -0.338 N 
ATOM     19  H   LEU     4      57.750  41.946  50.615  1.00 99.99     0.164 HD
BRANCH  18  20
ATOM     20  CA  LEU     4      58.147  42.369  52.631  1.00  0.00     0.159 C 
BRANCH  20  21
ATOM     21  CB  LEU     4      57.721  41.160  53.474  1.00  0.00     0.032 C 
BRANCH  21  22
ATOM     22  CG  LEU     4      56.619  40.292  52.857  1.00  0.00     0.002 C 
ATOM     23  CD1 LEU     4      57.154  38.869  52.691  1.00  0.00     0.000 C 
ATOM     24  CD2 LEU     4      55.359  40.271  53.730  1.00  0.00     0.000 C 
ENDBRANCH  21  22
ENDBRANCH  20  21
BRANCH  20  25
ATOM     25  C   LEU     4      59.682  42.321  52.442  1.00  0.00     0.251 C 
ATOM     26  N   ALA     5      60.192  41.121  52.181  1.00  0.00    -0.338 N 
ATOM     27  H   ALA     5      59.634  40.294  52.264  1.00 99.99     0.164 HD
ATOM     28  O   LEU     4      60.379  43.286  52.749  1.00  0.00    -0.271 OA
BRANCH  26  29
ATOM     29  CA  ALA     5      61.609  40.850  51.858  1.00  0.00     0.159 C 
ATOM     30  CB  ALA     5      62.300  40.414  53.153  1.00  0.00     0.034 C 
BRANCH  29  31
ATOM     31  C   ALA     5      61.784  39.785  50.748  1.00  0.00     0.251 C 
ATOM     32  N   TYR     6      61.844  40.260  49.504  1.00  0.00    -0.337 N 
ATOM     33  H   TYR     6      61.540  41.191  49.299  1.00 99.99     0.164 HD
ATOM     34  O   ALA     5      61.761  38.583  51.003  1.00  0.00    -0.271 OA
BRANCH  32  35
ATOM     35  CA  TYR     6      62.193  39.469  48.301  1.00  0.00     0.164 C 
BRANCH  35  36
ATOM     36  C   TYR     6      63.544  39.908  47.696  1.00  0.00     0.251 C 
ATOM     37  O   TYR     6      63.880  39.549  46.569  1.00  0.00    -0.271 OA
ATOM     38  N   ALA     7      64.188  40.853  48.378  1.00  0.00    -0.336 N 
ATOM     39  H   ALA     7      63.786  41.248  49.202  1.00 99.99     0.164 HD
BRANCH  38  40
ATOM     40  CA  ALA     7      65.522  41.391  48.049  1.00  0.00     0.168 C 
ATOM     41  CB  ALA     7      65.603  42.828  48.577  1.00  0.00     0.036 C 
BRANCH  40  42
ATOM     42  C   ALA     7      66.604  40.540  48.734  1.00  0.00     0.206 C 
ATOM     43  OXT ALA     7      66.374  40.230  49.925  1.00 99.99    -0.646 OA
ATOM     44  O   ALA     7      67.549  40.119  48.032  1.00 99.99    -0.646 OA
ENDBRANCH  40  42
ENDBRANCH  38  40
ENDBRANCH  35  36
BRANCH  35  45
ATOM     45  CB  TYR     6      61.136  39.635  47.203  1.00  0.00     0.056 C 
BRANCH  45  46
ATOM     46  CG  TYR     6      59.832  38.832  47.285  1.00  0.00    -0.044 A 
ATOM     47  CD2 TYR     6      59.121  38.953  48.470  1.00  0.00     0.011 A 
ATOM     48  CE2 TYR     6      57.855  38.402  48.599  1.00  0.00     0.037 A 
ATOM     49  CZ  TYR     6      57.288  37.729  47.524  1.00  0.00     0.065 A 
ATOM     50  CE1 TYR     6      58.002  37.583  46.341  1.00  0.00     0.037 A 
ATOM     51  CD1 TYR     6      59.272  38.137  46.217  1.00  0.00     0.011 A 
BRANCH  49  52
ATOM     52  OH  TYR     6      56.004  37.295  47.601  1.00  0.00    -0.361 OA
ATOM     53  HH  TYR     6      55.869  36.544  46.959  1.00 99.99     0.217 HD
ENDBRANCH  49  52
ENDBRANCH  45  46
ENDBRANCH  35  45
ENDBRANCH  32  35
ENDBRANCH  29  31
ENDBRANCH  26  29
ENDBRANCH  20  25
ENDBRANCH  18  20
ENDBRANCH  15  16
BRANCH  15  54
ATOM     54  CB  LYS     3      54.309  41.995  49.903  1.00  0.00     0.032 C 
BRANCH  54  55
ATOM     55  CG  LYS     3      54.676  40.614  49.345  1.00  0.00     0.004 C 
BRANCH  55  56
ATOM     56  CD  LYS     3      54.148  39.465  50.209  1.00  0.00     0.032 C 
BRANCH  56  57
ATOM     57  CE  LYS     3      52.634  39.605  50.392  1.00  0.00     0.206 C 
BRANCH  57  58
ATOM     58  NZ  LYS     3      52.245  39.699  51.807  1.00  0.00    -0.064 N 
ATOM     59  HZ1 LYS     3      53.033  39.470  52.380  1.00 99.99     0.275 HD
ATOM     60  HZ3 LYS     3      51.501  39.059  51.998  1.00 99.99     0.275 HD
ATOM     61  HZ2 LYS     3      51.949  40.632  52.015  1.00 99.99     0.275 HD
ENDBRANCH  57  58
ENDBRANCH  56  57
ENDBRANCH  55  56
ENDBRANCH  54  55
ENDBRANCH  15  54
ENDBRANCH  12  15
ENDBRANCH  10  11
BRANCH  10  62
ATOM     62  CB  LYS     2      57.636  41.505  46.399  1.00  0.00     0.032 C 
BRANCH  62  63
ATOM     63  CG  LYS     2      57.362  41.409  44.891  1.00  0.00     0.004 C 
BRANCH  63  64
ATOM     64  CD  LYS     2      58.642  41.239  44.065  1.00  0.00     0.032 C 
BRANCH  64  65
ATOM     65  CE  LYS     2      58.327  40.679  42.672  1.00  0.00     0.206 C 
BRANCH  65  66
ATOM     66  NZ  LYS     2      57.703  41.678  41.789  1.00  0.00    -0.064 N 
ATOM     67  HZ1 LYS     2      57.786  41.380  40.837  1.00 99.99     0.275 HD
ATOM     68  HZ2 LYS     2      56.735  41.782  42.016  1.00 99.99     0.275 HD
ATOM     69  HZ3 LYS     2      58.167  42.558  41.891  1.00 99.99     0.275 HD
ENDBRANCH  65  66
ENDBRANCH  64  65
ENDBRANCH  63  64
ENDBRANCH  62  63
ENDBRANCH  10  62
ENDBRANCH   7  10
ENDBRANCH   5   6
BRANCH   5  70
ATOM     70  CB  LYS     1      61.817  44.740  49.081  1.00  0.00     0.040 C 
BRANCH  70  71
ATOM     71  CG  LYS     1      62.611  44.549  50.386  1.00  0.00     0.004 C 
BRANCH  71  72
ATOM     72  CD  LYS     1      63.781  45.531  50.559  1.00  0.00     0.032 C 
BRANCH  72  73
ATOM     73  CE  LYS     1      63.767  46.597  49.452  1.00  0.00     0.206 C 
BRANCH  73  74
ATOM     74  NZ  LYS     1      65.106  47.105  49.101  1.00  0.00    -0.064 N 
ATOM     75  HZ3 LYS     1      65.090  47.526  48.195  1.00 99.99     0.275 HD
ATOM     76  HZ2 LYS     1      65.771  46.357  49.112  1.00 99.99     0.275 HD
ATOM     77  HZ1 LYS     1      65.386  47.793  49.772  1.00 99.99     0.275 HD
ENDBRANCH  73  74
ENDBRANCH  72  73
ENDBRANCH  71  72
ENDBRANCH  70  71
ENDBRANCH   5  70
ENDBRANCH   1   5
TORSDOF 34
ENDMDL
MODEL 2
REMARK VINA RESULT:      -4.5      2.210      5.469
REMARK WARNING: 32 MAX_TORS EXCEEDED!!!
REMARK  34 active torsions:
REMARK  status: ('A' for Active; 'I' for Inactive)
REMARK    1  A    between atoms: N_1  and  CA_2 
REMARK    2  A    between atoms: CA_2  and  C_3 
REMARK    3  A    between atoms: CA_2  and  CB_5 
REMARK       I    between atoms: C_3  and  N_16 
REMARK    4  A    between atoms: CB_5  and  CG_6 
REMARK    5  A    between atoms: CG_6  and  CD_7 
REMARK    6  A    between atoms: CD_7  and  CE_8 
REMARK    7  A    between atoms: CE_8  and  NZ_9 
REMARK    8  A    between atoms: N_16  and  CA_17 
REMARK    9  A    between atoms: CA_17  and  C_18 
REMARK   10  A    between atoms: CA_17  and  CB_20 
REMARK       I    between atoms: C_18  and  N_29 
REMARK   11  A    between atoms: CB_20  and  CG_21 
REMARK   12  A    between atoms: CG_21  and  CD_22 
REMARK   13  A    between atoms: CD_22  and  CE_23 
REMARK   14  A    between atoms: CE_23  and  NZ_24 
REMARK   15  A    between atoms: N_29  and  CA_30 
REMARK   16  A    between atoms: CA_30  and  C_31 
REMARK   17  A    between atoms: CA_30  and  CB_33 
REMARK       I    between atoms: C_31  and  N_42 
REMARK   18  A    between atoms: CB_33  and  CG_34 
REMARK   19  A    between atoms: CG_34  and  CD_35 
REMARK   20  A    between atoms: CD_35  and  CE_36 
REMARK   21  A    between atoms: CE_36  and  NZ_37 
REMARK   22  A    between atoms: N_42  and  CA_43 
REMARK   23  A    between atoms: CA_43  and  CB_46 
REMARK   24  A    between atoms: CA_43  and  C_44 
REMARK       I    between atoms: C_44  and  N_51 
REMARK   25  A    between atoms: CB_46  and  CG_47 
REMARK   26  A    between atoms: N_51  and  CA_52 
REMARK   27  A    between atoms: CA_52  and  C_53 
REMARK       I    between atoms: C_53  and  N_57 
REMARK   28  A    between atoms: N_57  and  CA_58 
REMARK   29  A    between atoms: CA_58  and  C_59 
REMARK   30  A    between atoms: CA_58  and  CB_61 
REMARK       I    between atoms: C_59  and  N_71 
REMARK   31  A    between atoms: CB_61  and  CG_62 
REMARK   32  A    between atoms: CZ_67  and  OH_68 
REMARK   33  A    between atoms: N_71  and  CA_72 
REMARK   34  A    between atoms: CA_72  and  C_73 
ROOT
ATOM      1  N   LYS     1      64.001  43.237  50.090  1.00  0.00    -0.058 N 
ATOM      2  H1  LYS     1      64.129  42.452  49.484  1.00 99.99     0.276 HD
ATOM      3  H2  LYS     1      64.837  43.746  50.149  1.00 99.99     0.276 HD
ATOM      4  H3  LYS     1      63.838  42.892  51.008  1.00 99.99     0.276 HD
ENDROOT
BRANCH   1   5
ATOM      5  CA  LYS     1      62.858  44.038  49.589  1.00  0.00     0.255 C 
BRANCH   5   6
ATOM      6  C   LYS     1      62.487  43.508  48.181  1.00  0.00     0.259 C 
ATOM      7  N   LYS     2      61.234  43.100  47.913  1.00  0.00    -0.338 N 
ATOM      8  H   LYS     2      60.520  43.137  48.611  1.00 99.99     0.164 HD
ATOM      9  O   LYS     1      63.272  43.818  47.288  1.00  0.00    -0.271 OA
BRANCH   7  10
ATOM     10  CA  LYS     2      60.767  42.525  46.619  1.00  0.00     0.159 C 
BRANCH  10  11
ATOM     11  C   LYS     2      59.257  42.599  46.289  1.00  0.00     0.251 C 
ATOM     12  N   LYS     3      58.393  41.989  47.112  1.00  0.00    -0.338 N 
ATOM     13  H   LYS     3      58.717  41.388  47.842  1.00 99.99     0.164 HD
ATOM     14  O   LYS     2      58.893  43.353  45.392  1.00  0.00    -0.271 OA
BRANCH  12  15
ATOM     15  CA  LYS     3      56.914  42.071  47.005  1.00  0.00     0.159 C 
BRANCH  15  16
ATOM     16  C   LYS     3      56.188  42.516  48.303  1.00  0.00     0.251 C 
ATOM     17  O   LYS     3      55.788  43.674  48.401  1.00  0.00    -0.271 OA
ATOM     18  N   LEU     4      56.275  41.696  49.353  1.00  0.00    -0.338 N 
ATOM     19  H   LEU     4      56.859  40.880  49.322  1.00 99.99     0.164 HD
BRANCH  18  20
ATOM     20  CA  LEU     4      55.659  41.932  50.683  1.00  0.00     0.159 C 
BRANCH  20  21
ATOM     21  CB  LEU     4      54.939  40.654  51.134  1.00  0.00     0.032 C 
BRANCH  21  22
ATOM     22  CG  LEU     4      54.081  39.977  50.059  1.00  0.00     0.002 C 
ATOM     23  CD1 LEU     4      53.787  38.543  50.502  1.00  0.00     0.000 C 
ATOM     24  CD2 LEU     4      52.764  40.726  49.828  1.00  0.00     0.000 C 
ENDBRANCH  21  22
ENDBRANCH  20  21
BRANCH  20  25
ATOM     25  C   LEU     4      56.607  42.388  51.818  1.00  0.00     0.251 C 
ATOM     26  N   ALA     5      57.261  41.415  52.447  1.00  0.00    -0.338 N 
ATOM     27  H   ALA     5      57.026  40.454  52.296  1.00 99.99     0.164 HD
ATOM     28  O   LEU     4      56.564  43.540  52.243  1.00  0.00    -0.271 OA
BRANCH  26  29
ATOM     29  CA  ALA     5      58.296  41.616  53.483  1.00  0.00     0.159 C 
ATOM     30  CB  ALA     5      58.412  40.311  54.276  1.00  0.00     0.034 C 
BRANCH  29  31
ATOM     31  C   ALA     5      59.667  42.034  52.897  1.00  0.00     0.251 C 
ATOM     32  N   TYR     6      60.517  41.036  52.662  1.00  0.00    -0.337 N 
ATOM     33  H   TYR     6      60.371  40.136  53.074  1.00 99.99     0.164 HD
ATOM     34  O   ALA     5      59.972  43.217  52.762  1.00  0.00    -0.271 OA
BRANCH  32  35
ATOM     35  CA  TYR     6      61.803  41.158  51.937  1.00  0.00     0.164 C 
BRANCH  35  36
ATOM     36  C   TYR     6      61.794  40.366  50.611  1.00  0.00     0.251 C 
ATOM     37  O   TYR     6      62.723  40.456  49.812  1.00  0.00    -0.271 OA
ATOM     38  N   ALA     7      60.841  39.440  50.513  1.00  0.00    -0.336 N 
ATOM     39  H   ALA     7      60.212  39.276  51.271  1.00 99.99     0.164 HD
BRANCH  38  40
ATOM     40  CA  ALA     7      60.577  38.602  49.328  1.00  0.00     0.168 C 
ATOM     41  CB  ALA     7      60.494  37.140  49.783  1.00  0.00     0.036 C 
BRANCH  40  42
ATOM     42  C   ALA     7      59.236  39.011  48.697  1.00  0.00     0.206 C 
ATOM     43  OXT ALA     7      58.924  38.402  47.648  1.00 99.99    -0.646 OA
ATOM     44  O   ALA     7      58.511  39.809  49.329  1.00 99.99    -0.646 OA
ENDBRANCH  40  42
ENDBRANCH  38  40
ENDBRANCH  35  36
BRANCH  35  45
ATOM     45  CB  TYR     6      62.966  40.613  52.775  1.00  0.00     0.056 C 
BRANCH  45  46
ATOM     46  CG  TYR     6      62.688  40.069  54.182  1.00  0.00    -0.044 A 
ATOM     47  CD2 TYR     6      62.755  40.995  55.212  1.00  0.00     0.011 A 
ATOM     48  CE2 TYR     6      62.370  40.655  56.501  1.00  0.00     0.037 A 
ATOM     49  CZ  TYR     6      61.902  39.372  56.759  1.00  0.00     0.065 A 
ATOM     50  CE1 TYR     6      61.853  38.431  55.738  1.00  0.00     0.037 A 
ATOM     51  CD1 TYR     6      62.241  38.777  54.448  1.00  0.00     0.011 A 
BRANCH  49  52
ATOM     52  OH  TYR     6      61.409  39.069  57.988  1.00  0.00    -0.361 OA
ATOM     53  HH  TYR     6      60.674  38.402  57.894  1.00 99.99     0.217 HD
ENDBRANCH  49  52
ENDBRANCH  45  46
ENDBRANCH  35  45
ENDBRANCH  32  35
ENDBRANCH  29  31
ENDBRANCH  26  29
ENDBRANCH  20  25
ENDBRANCH  18  20
ENDBRANCH  15  16
BRANCH  15  54
ATOM     54  CB  LYS     3      56.383  40.714  46.511  1.00  0.00     0.032 C 
BRANCH  54  55
ATOM     55  CG  LYS     3      56.398  40.586  44.982  1.00  0.00     0.004 C 
BRANCH  55  56
ATOM     56  CD  LYS     3      57.612  39.812  44.462  1.00  0.00     0.032 C 
BRANCH  56  57
ATOM     57  CE  LYS     3      58.199  40.527  43.240  1.00  0.00     0.206 C 
BRANCH  57  58
ATOM     58  NZ  LYS     3      57.596  41.851  43.022  1.00  0.00    -0.064 N 
ATOM     59  HZ1 LYS     3      56.753  41.921  43.556  1.00 99.99     0.275 HD
ATOM     60  HZ3 LYS     3      57.382  41.971  42.053  1.00 99.99     0.275 HD
ATOM     61  HZ2 LYS     3      58.231  42.565  43.318  1.00 99.99     0.275 HD
ENDBRANCH  57  58
ENDBRANCH  56  57
ENDBRANCH  55  56
ENDBRANCH  54  55
ENDBRANCH  15  54
ENDBRANCH  12  15
ENDBRANCH  10  11
BRANCH  10  62
ATOM     62  CB  LYS     2      61.362  41.132  46.347  1.00  0.00     0.032 C 
BRANCH  62  63
ATOM     63  CG  LYS     2      61.858  41.011  44.900  1.00  0.00     0.004 C 
BRANCH  63  64
ATOM     64  CD  LYS     2      62.232  42.364  44.285  1.00  0.00     0.032 C 
BRANCH  64  65
ATOM     65  CE  LYS     2      61.584  42.540  42.907  1.00  0.00     0.206 C 
BRANCH  65  66
ATOM     66  NZ  LYS     2      60.620  43.653  42.873  1.00  0.00    -0.064 N 
ATOM     67  HZ1 LYS     2      61.019  44.426  42.378  1.00 99.99     0.275 HD
ATOM     68  HZ2 LYS     2      59.780  43.369  42.412  1.00 99.99     0.275 HD
ATOM     69  HZ3 LYS     2      60.407  43.947  43.806  1.00 99.99     0.275 HD
ENDBRANCH  65  66
ENDBRANCH  64  65
ENDBRANCH  63  64
ENDBRANCH  62  63
ENDBRANCH  10  62
ENDBRANCH   7  10
ENDBRANCH   5   6
BRANCH   5  70
ATOM     70  CB  LYS     1      63.118  45.558  49.691  1.00  0.00     0.040 C 
BRANCH  70  71
ATOM     71  CG  LYS     1      64.557  45.857  50.146  1.00  0.00     0.004 C 
BRANCH  71  72
ATOM     72  CD  LYS     1      65.445  46.479  49.056  1.00  0.00     0.032 C 
BRANCH  72  73
ATOM     73  CE  LYS     1      66.303  45.404  48.371  1.00  0.00     0.206 C 
BRANCH  73  74
ATOM     74  NZ  LYS     1      65.938  45.161  46.964  1.00  0.00    -0.064 N 
ATOM     75  HZ3 LYS     1      65.076  45.618  46.746  1.00 99.99     0.275 HD
ATOM     76  HZ2 LYS     1      65.849  44.179  46.795  1.00 99.99     0.275 HD
ATOM     77  HZ1 LYS     1      66.655  45.525  46.367  1.00 99.99     0.275 HD
ENDBRANCH  73  74
ENDBRANCH  72  73
ENDBRANCH  71  72
ENDBRANCH  70  71
ENDBRANCH   5  70
ENDBRANCH   1   5
TORSDOF 34
ENDMDL
MODEL 3
REMARK VINA RESULT:      -4.4      2.597      6.096
REMARK WARNING: 32 MAX_TORS EXCEEDED!!!
REMARK  34 active torsions:
REMARK  status: ('A' for Active; 'I' for Inactive)
REMARK    1  A    between atoms: N_1  and  CA_2 
REMARK    2  A    between atoms: CA_2  and  C_3 
REMARK    3  A    between atoms: CA_2  and  CB_5 
REMARK       I    between atoms: C_3  and  N_16 
REMARK    4  A    between atoms: CB_5  and  CG_6 
REMARK    5  A    between atoms: CG_6  and  CD_7 
REMARK    6  A    between atoms: CD_7  and  CE_8 
REMARK    7  A    between atoms: CE_8  and  NZ_9 
REMARK    8  A    between atoms: N_16  and  CA_17 
REMARK    9  A    between atoms: CA_17  and  C_18 
REMARK   10  A    between atoms: CA_17  and  CB_20 
REMARK       I    between atoms: C_18  and  N_29 
REMARK   11  A    between atoms: CB_20  and  CG_21 
REMARK   12  A    between atoms: CG_21  and  CD_22 
REMARK   13  A    between atoms: CD_22  and  CE_23 
REMARK   14  A    between atoms: CE_23  and  NZ_24 
REMARK   15  A    between atoms: N_29  and  CA_30 
REMARK   16  A    between atoms: CA_30  and  C_31 
REMARK   17  A    between atoms: CA_30  and  CB_33 
REMARK       I    between atoms: C_31  and  N_42 
REMARK   18  A    between atoms: CB_33  and  CG_34 
REMARK   19  A    between atoms: CG_34  and  CD_35 
REMARK   20  A    between atoms: CD_35  and  CE_36 
REMARK   21  A    between atoms: CE_36  and  NZ_37 
REMARK   22  A    between atoms: N_42  and  CA_43 
REMARK   23  A    between atoms: CA_43  and  CB_46 
REMARK   24  A    between atoms: CA_43  and  C_44 
REMARK       I    between atoms: C_44  and  N_51 
REMARK   25  A    between atoms: CB_46  and  CG_47 
REMARK   26  A    between atoms: N_51  and  CA_52 
REMARK   27  A    between atoms: CA_52  and  C_53 
REMARK       I    between atoms: C_53  and  N_57 
REMARK   28  A    between atoms: N_57  and  CA_58 
REMARK   29  A    between atoms: CA_58  and  C_59 
REMARK   30  A    between atoms: CA_58  and  CB_61 
REMARK       I    between atoms: C_59  and  N_71 
REMARK   31  A    between atoms: CB_61  and  CG_62 
REMARK   32  A    between atoms: CZ_67  and  OH_68 
REMARK   33  A    between atoms: N_71  and  CA_72 
REMARK   34  A    between atoms: CA_72  and  C_73 
ROOT
ATOM      1  N   LYS     1      63.803  42.730  49.763  1.00  0.00    -0.058 N 
ATOM      2  H1  LYS     1      63.849  41.901  50.321  1.00 99.99     0.276 HD
ATOM      3  H2  LYS     1      63.364  42.527  48.910  1.00 99.99     0.276 HD
ATOM      4  H3  LYS     1      64.732  42.991  49.526  1.00 99.99     0.276 HD
ENDROOT
BRANCH   1   5
ATOM      5  CA  LYS     1      63.113  43.785  50.544  1.00  0.00     0.255 C 
BRANCH   5   6
ATOM      6  C   LYS     1      62.435  43.109  51.762  1.00  0.00     0.259 C 
ATOM      7  N   LYS     2      62.842  41.901  52.189  1.00  0.00    -0.338 N 
ATOM      8  H   LYS     2      63.592  41.421  51.735  1.00 99.99     0.164 HD
ATOM      9  O   LYS     1      61.795  43.870  52.485  1.00  0.00    -0.271 OA
BRANCH   7  10
ATOM     10  CA  LYS     2      62.238  41.127  53.311  1.00  0.00     0.159 C 
BRANCH  10  11
ATOM     11  C   LYS     2      60.740  40.752  53.219  1.00  0.00     0.251 C 
ATOM     12  N   LYS     3      59.877  41.679  52.783  1.00  0.00    -0.338 N 
ATOM     13  H   LYS     3      60.164  42.626  52.649  1.00 99.99     0.164 HD
ATOM     14  O   LYS     2      60.423  39.578  53.380  1.00  0.00    -0.271 OA
BRANCH  12  15
ATOM     15  CA  LYS     3      58.434  41.440  52.520  1.00  0.00     0.159 C 
BRANCH  15  16
ATOM     16  C   LYS     3      58.131  40.601  51.250  1.00  0.00     0.251 C 
ATOM     17  O   LYS     3      57.484  39.560  51.357  1.00  0.00    -0.271 OA
ATOM     18  N   LEU     4      58.816  40.909  50.146  1.00  0.00    -0.338 N 
ATOM     19  H   LEU     4      59.554  41.589  50.172  1.00 99.99     0.164 HD
BRANCH  18  20
ATOM     20  CA  LEU     4      58.681  40.232  48.832  1.00  0.00     0.159 C 
BRANCH  20  21
ATOM     21  CB  LEU     4      58.443  41.291  47.747  1.00  0.00     0.032 C 
BRANCH  21  22
ATOM     22  CG  LEU     4      58.287  42.726  48.262  1.00  0.00     0.002 C 
ATOM     23  CD1 LEU     4      59.520  43.530  47.847  1.00  0.00     0.000 C 
ATOM     24  CD2 LEU     4      57.025  43.394  47.706  1.00  0.00     0.000 C 
ENDBRANCH  21  22
ENDBRANCH  20  21
BRANCH  20  25
ATOM     25  C   LEU     4      59.858  39.331  48.389  1.00  0.00     0.251 C 
ATOM     26  N   ALA     5      60.609  39.809  47.402  1.00  0.00    -0.338 N 
ATOM     27  H   ALA     5      60.327  40.618  46.884  1.00 99.99     0.164 HD
ATOM     28  O   LEU     4      59.931  38.165  48.772  1.00  0.00    -0.271 OA
BRANCH  26  29
ATOM     29  CA  ALA     5      61.845  39.179  46.890  1.00  0.00     0.159 C 
ATOM     30  CB  ALA     5      61.461  38.348  45.661  1.00  0.00     0.034 C 
BRANCH  29  31
ATOM     31  C   ALA     5      62.950  40.207  46.543  1.00  0.00     0.251 C 
ATOM     32  N   TYR     6      63.479  40.089  45.325  1.00  0.00    -0.337 N 
ATOM     33  H   TYR     6      63.352  39.251  44.795  1.00 99.99     0.164 HD
ATOM     34  O   ALA     5      63.372  41.002  47.380  1.00  0.00    -0.271 OA
BRANCH  32  35
ATOM     35  CA  TYR     6      64.407  41.058  44.697  1.00  0.00     0.164 C 
BRANCH  35  36
ATOM     36  C   TYR     6      65.769  41.105  45.423  1.00  0.00     0.251 C 
ATOM     37  O   TYR     6      66.624  40.245  45.223  1.00  0.00    -0.271 OA
ATOM     38  N   ALA     7      66.017  42.233  46.087  1.00  0.00    -0.336 N 
ATOM     39  H   ALA     7      65.361  42.985  46.073  1.00 99.99     0.164 HD
BRANCH  38  40
ATOM     40  CA  ALA     7      67.210  42.497  46.915  1.00  0.00     0.168 C 
ATOM     41  CB  ALA     7      67.781  43.861  46.510  1.00  0.00     0.036 C 
BRANCH  40  42
ATOM     42  C   ALA     7      66.808  42.537  48.398  1.00  0.00     0.206 C 
ATOM     43  OXT ALA     7      66.523  41.431  48.911  1.00 99.99    -0.646 OA
ATOM     44  O   ALA     7      66.917  43.625  49.005  1.00 99.99    -0.646 OA
ENDBRANCH  40  42
ENDBRANCH  38  40
ENDBRANCH  35  36
BRANCH  35  45
ATOM     45  CB  TYR     6      63.831  42.479  44.735  1.00  0.00     0.056 C 
BRANCH  45  46
ATOM     46  CG  TYR     6      62.456  42.751  44.113  1.00  0.00    -0.044 A 
ATOM     47  CD2 TYR     6      62.355  42.528  42.748  1.00  0.00     0.011 A 
ATOM     48  CE2 TYR     6      61.127  42.587  42.106  1.00  0.00     0.037 A 
ATOM     49  CZ  TYR     6      59.982  42.863  42.844  1.00  0.00     0.065 A 
ATOM     50  CE1 TYR     6      60.077  43.110  44.208  1.00  0.00     0.037 A 
ATOM     51  CD1 TYR     6      61.311  43.051  44.846  1.00  0.00     0.011 A 
BRANCH  49  52
ATOM     52  OH  TYR     6      58.764  42.801  42.246  1.00  0.00    -0.361 OA
ATOM     53  HH  TYR     6      58.282  43.663  42.387  1.00 99.99     0.217 HD
ENDBRANCH  49  52
ENDBRANCH  45  46
ENDBRANCH  35  45
ENDBRANCH  32  35
ENDBRANCH  29  31
ENDBRANCH  26  29
ENDBRANCH  20  25
ENDBRANCH  18  20
ENDBRANCH  15  16
BRANCH  15  54
ATOM     54  CB  LYS     3      57.715  42.799  52.470  1.00  0.00     0.032 C 
BRANCH  54  55
ATOM     55  CG  LYS     3      56.186  42.667  52.436  1.00  0.00     0.004 C 
BRANCH  55  56
ATOM     56  CD  LYS     3      55.564  43.294  51.185  1.00  0.00     0.032 C 
BRANCH  56  57
ATOM     57  CE  LYS     3      54.841  42.217  50.369  1.00  0.00     0.206 C 
BRANCH  57  58
ATOM     58  NZ  LYS     3      54.544  41.016  51.165  1.00  0.00    -0.064 N 
ATOM     59  HZ1 LYS     3      55.253  40.330  51.003  1.00 99.99     0.275 HD
ATOM     60  HZ3 LYS     3      53.656  40.642  50.895  1.00 99.99     0.275 HD
ATOM     61  HZ2 LYS     3      54.529  41.250  52.137  1.00 99.99     0.275 HD
ENDBRANCH  57  58
ENDBRANCH  56  57
ENDBRANCH  55  56
ENDBRANCH  54  55
ENDBRANCH  15  54
ENDBRANCH  12  15
ENDBRANCH  10  11
BRANCH  10  62
ATOM     62  CB  LYS     2      62.620  41.698  54.688  1.00  0.00     0.032 C 
BRANCH  62  63
ATOM     63  CG  LYS     2      63.580  40.759  55.434  1.00  0.00     0.004 C 
BRANCH  63  64
ATOM     64  CD  LYS     2      64.102  39.620  54.551  1.00  0.00     0.032 C 
BRANCH  64  65
ATOM     65  CE  LYS     2      65.566  39.855  54.160  1.00  0.00     0.206 C 
BRANCH  65  66
ATOM     66  NZ  LYS     2      66.306  40.623  55.174  1.00  0.00    -0.064 N 
ATOM     67  HZ1 LYS     2      66.388  41.575  54.877  1.00 99.99     0.275 HD
ATOM     68  HZ2 LYS     2      65.823  40.595  56.049  1.00 99.99     0.275 HD
ATOM     69  HZ3 LYS     2      67.224  40.242  55.286  1.00 99.99     0.275 HD
ENDBRANCH  65  66
ENDBRANCH  64  65
ENDBRANCH  63  64
ENDBRANCH  62  63
ENDBRANCH  10  62
ENDBRANCH   7  10
ENDBRANCH   5   6
BRANCH   5  70
ATOM     70  CB  LYS     1      62.196  44.662  49.662  1.00  0.00     0.040 C 
BRANCH  70  71
ATOM     71  CG  LYS     1      62.612  46.143  49.711  1.00  0.00     0.004 C 
BRANCH  71  72
ATOM     72  CD  LYS     1      63.918  46.405  50.479  1.00  0.00     0.032 C 
BRANCH  72  73
ATOM     73  CE  LYS     1      65.103  46.537  49.510  1.00  0.00     0.206 C 
BRANCH  73  74
ATOM     74  NZ  LYS     1      66.417  46.560  50.179  1.00  0.00    -0.064 N 
ATOM     75  HZ3 LYS     1      66.986  47.288  49.799  1.00 99.99     0.275 HD
ATOM     76  HZ2 LYS     1      66.877  45.679  50.064  1.00 99.99     0.275 HD
ATOM     77  HZ1 LYS     1      66.287  46.728  51.158  1.00 99.99     0.275 HD
ENDBRANCH  73  74
ENDBRANCH  72  73
ENDBRANCH  71  72
ENDBRANCH  70  71
ENDBRANCH   5  70
ENDBRANCH   1   5
TORSDOF 34
ENDMDL
MODEL 4
REMARK VINA RESULT:      -4.3      2.472      6.760
REMARK WARNING: 32 MAX_TORS EXCEEDED!!!
REMARK  34 active torsions:
REMARK  status: ('A' for Active; 'I' for Inactive)
REMARK    1  A    between atoms: N_1  and  CA_2 
REMARK    2  A    between atoms: CA_2  and  C_3 
REMARK    3  A    between atoms: CA_2  and  CB_5 
REMARK       I    between atoms: C_3  and  N_16 
REMARK    4  A    between atoms: CB_5  and  CG_6 
REMARK    5  A    between atoms: CG_6  and  CD_7 
REMARK    6  A    between atoms: CD_7  and  CE_8 
REMARK    7  A    between atoms: CE_8  and  NZ_9 
REMARK    8  A    between atoms: N_16  and  CA_17 
REMARK    9  A    between atoms: CA_17  and  C_18 
REMARK   10  A    between atoms: CA_17  and  CB_20 
REMARK       I    between atoms: C_18  and  N_29 
REMARK   11  A    between atoms: CB_20  and  CG_21 
REMARK   12  A    between atoms: CG_21  and  CD_22 
REMARK   13  A    between atoms: CD_22  and  CE_23 
REMARK   14  A    between atoms: CE_23  and  NZ_24 
REMARK   15  A    between atoms: N_29  and  CA_30 
REMARK   16  A    between atoms: CA_30  and  C_31 
REMARK   17  A    between atoms: CA_30  and  CB_33 
REMARK       I    between atoms: C_31  and  N_42 
REMARK   18  A    between atoms: CB_33  and  CG_34 
REMARK   19  A    between atoms: CG_34  and  CD_35 
REMARK   20  A    between atoms: CD_35  and  CE_36 
REMARK   21  A    between atoms: CE_36  and  NZ_37 
REMARK   22  A    between atoms: N_42  and  CA_43 
REMARK   23  A    between atoms: CA_43  and  CB_46 
REMARK   24  A    between atoms: CA_43  and  C_44 
REMARK       I    between atoms: C_44  and  N_51 
REMARK   25  A    between atoms: CB_46  and  CG_47 
REMARK   26  A    between atoms: N_51  and  CA_52 
REMARK   27  A    between atoms: CA_52  and  C_53 
REMARK       I    between atoms: C_53  and  N_57 
REMARK   28  A    between atoms: N_57  and  CA_58 
REMARK   29  A    between atoms: CA_58  and  C_59 
REMARK   30  A    between atoms: CA_58  and  CB_61 
REMARK       I    between atoms: C_59  and  N_71 
REMARK   31  A    between atoms: CB_61  and  CG_62 
REMARK   32  A    between atoms: CZ_67  and  OH_68 
REMARK   33  A    between atoms: N_71  and  CA_72 
REMARK   34  A    between atoms: CA_72  and  C_73 
ROOT
ATOM      1  N   LYS     1      58.681  44.211  45.282  1.00  0.00    -0.058 N 
ATOM      2  H1  LYS     1      59.587  43.787  45.267  1.00 99.99     0.276 HD
ATOM      3  H2  LYS     1      58.463  44.549  44.387  1.00 99.99     0.276 HD
ATOM      4  H3  LYS     1      58.729  45.016  45.862  1.00 99.99     0.276 HD
ENDROOT
BRANCH   1   5
ATOM      5  CA  LYS     1      57.704  43.219  45.791  1.00  0.00     0.255 C 
BRANCH   5   6
ATOM      6  C   LYS     1      57.403  43.565  47.272  1.00  0.00     0.259 C 
ATOM      7  N   LYS     2      56.752  42.691  48.059  1.00  0.00    -0.338 N 
ATOM      8  H   LYS     2      56.458  41.803  47.708  1.00 99.99     0.164 HD
ATOM      9  O   LYS     1      58.085  44.475  47.739  1.00  0.00    -0.271 OA
BRANCH   7  10
ATOM     10  CA  LYS     2      56.360  42.926  49.478  1.00  0.00     0.159 C 
BRANCH  10  11
ATOM     11  C   LYS     2      57.273  42.362  50.592  1.00  0.00     0.251 C 
ATOM     12  N   LYS     3      57.002  42.687  51.864  1.00  0.00    -0.338 N 
ATOM     13  H   LYS     3      56.317  43.381  52.081  1.00 99.99     0.164 HD
ATOM     14  O   LYS     2      58.098  41.505  50.291  1.00  0.00    -0.271 OA
BRANCH  12  15
ATOM     15  CA  LYS     3      57.702  42.132  53.051  1.00  0.00     0.159 C 
BRANCH  15  16
ATOM     16  C   LYS     3      59.251  42.140  52.960  1.00  0.00     0.251 C 
ATOM     17  O   LYS     3      59.850  43.214  52.989  1.00  0.00    -0.271 OA
ATOM     18  N   LEU     4      59.839  41.002  52.583  1.00  0.00    -0.338 N 
ATOM     19  H   LEU     4      59.292  40.214  52.287  1.00 99.99     0.164 HD
BRANCH  18  20
ATOM     20  CA  LEU     4      61.302  40.797  52.431  1.00  0.00     0.159 C 
BRANCH  20  21
ATOM     21  CB  LEU     4      61.740  39.639  53.337  1.00  0.00     0.032 C 
BRANCH  21  22
ATOM     22  CG  LEU     4      62.280  40.054  54.710  1.00  0.00     0.002 C 
ATOM     23  CD1 LEU     4      62.806  41.487  54.614  1.00  0.00     0.000 C 
ATOM     24  CD2 LEU     4      61.198  39.974  55.793  1.00  0.00     0.000 C 
ENDBRANCH  21  22
ENDBRANCH  20  21
BRANCH  20  25
ATOM     25  C   LEU     4      61.821  40.525  50.999  1.00  0.00     0.251 C 
ATOM     26  N   ALA     5      60.887  40.269  50.088  1.00  0.00    -0.338 N 
ATOM     27  H   ALA     5      59.936  40.107  50.355  1.00 99.99     0.164 HD
ATOM     28  O   LEU     4      63.017  40.332  50.795  1.00  0.00    -0.271 OA
BRANCH  26  29
ATOM     29  CA  ALA     5      61.135  40.088  48.642  1.00  0.00     0.159 C 
ATOM     30  CB  ALA     5      59.954  39.300  48.068  1.00  0.00     0.034 C 
BRANCH  29  31
ATOM     31  C   ALA     5      61.329  41.427  47.889  1.00  0.00     0.251 C 
ATOM     32  N   TYR     6      62.372  41.471  47.061  1.00  0.00    -0.337 N 
ATOM     33  H   TYR     6      63.103  40.791  47.126  1.00 99.99     0.164 HD
ATOM     34  O   ALA     5      60.625  42.405  48.128  1.00  0.00    -0.271 OA
BRANCH  32  35
ATOM     35  CA  TYR     6      62.656  42.561  46.098  1.00  0.00     0.164 C 
BRANCH  35  36
ATOM     36  C   TYR     6      62.595  42.067  44.636  1.00  0.00     0.251 C 
ATOM     37  O   TYR     6      63.491  41.371  44.164  1.00  0.00    -0.271 OA
ATOM     38  N   ALA     7      61.429  42.261  44.021  1.00  0.00    -0.336 N 
ATOM     39  H   ALA     7      60.662  42.674  44.508  1.00 99.99     0.164 HD
BRANCH  38  40
ATOM     40  CA  ALA     7      61.139  41.945  42.610  1.00  0.00     0.168 C 
ATOM     41  CB  ALA     7      60.310  40.656  42.568  1.00  0.00     0.036 C 
BRANCH  40  42
ATOM     42  C   ALA     7      60.325  43.089  41.983  1.00  0.00     0.206 C 
ATOM     43  OXT ALA     7      59.913  43.960  42.782  1.00 99.99    -0.646 OA
ATOM     44  O   ALA     7      60.246  43.135  40.736  1.00 99.99    -0.646 OA
ENDBRANCH  40  42
ENDBRANCH  38  40
ENDBRANCH  35  36
BRANCH  35  45
ATOM     45  CB  TYR     6      64.059  43.141  46.316  1.00  0.00     0.056 C 
BRANCH  45  46
ATOM     46  CG  TYR     6      64.362  43.912  47.605  1.00  0.00    -0.044 A 
ATOM     47  CD2 TYR     6      65.705  44.095  47.899  1.00  0.00     0.011 A 
ATOM     48  CE2 TYR     6      66.099  44.910  48.951  1.00  0.00     0.037 A 
ATOM     49  CZ  TYR     6      65.135  45.559  49.711  1.00  0.00     0.065 A 
ATOM     50  CE1 TYR     6      63.786  45.364  49.439  1.00  0.00     0.037 A 
ATOM     51  CD1 TYR     6      63.397  44.545  48.385  1.00  0.00     0.011 A 
BRANCH  49  52
ATOM     52  OH  TYR     6      65.515  46.452  50.661  1.00  0.00    -0.361 OA
ATOM     53  HH  TYR     6      65.235  47.369  50.386  1.00 99.99     0.217 HD
ENDBRANCH  49  52
ENDBRANCH  45  46
ENDBRANCH  35  45
ENDBRANCH  32  35
ENDBRANCH  29  31
ENDBRANCH  26  29
ENDBRANCH  20  25
ENDBRANCH  18  20
ENDBRANCH  15  16
BRANCH  15  54
ATOM     54  CB  LYS     3      57.170  40.713  53.313  1.00  0.00     0.032 C 
BRANCH  54  55
ATOM     55  CG  LYS     3      55.691  40.694  53.720  1.00  0.00     0.004 C 
BRANCH  55  56
ATOM     56  CD  LYS     3      55.488  40.391  55.208  1.00  0.00     0.032 C 
BRANCH  56  57
ATOM     57  CE  LYS     3      55.279  38.887  55.408  1.00  0.00     0.206 C 
BRANCH  57  58
ATOM     58  NZ  LYS     3      54.378  38.307  54.400  1.00  0.00    -0.064 N 
ATOM     59  HZ1 LYS     3      54.829  38.322  53.508  1.00 99.99     0.275 HD
ATOM     60  HZ3 LYS     3      53.534  38.841  54.352  1.00 99.99     0.275 HD
ATOM     61  HZ2 LYS     3      54.163  37.360  54.644  1.00 99.99     0.275 HD
ENDBRANCH  57  58
ENDBRANCH  56  57
ENDBRANCH  55  56
ENDBRANCH  54  55
ENDBRANCH  15  54
ENDBRANCH  12  15
ENDBRANCH  10  11
BRANCH  10  62
ATOM     62  CB  LYS     2      54.871  42.632  49.730  1.00  0.00     0.032 C 
BRANCH  62  63
ATOM     63  CG  LYS     2      54.469  41.261  49.169  1.00  0.00     0.004 C 
BRANCH  63  64
ATOM     64  CD  LYS     2      54.310  40.196  50.261  1.00  0.00     0.032 C 
BRANCH  64  65
ATOM     65  CE  LYS     2      52.830  39.941  50.569  1.00  0.00     0.206 C 
BRANCH  65  66
ATOM     66  NZ  LYS     2      51.947  40.969  49.993  1.00  0.00    -0.064 N 
ATOM     67  HZ1 LYS     2      50.993  40.681  50.087  1.00 99.99     0.275 HD
ATOM     68  HZ2 LYS     2      52.074  41.839  50.469  1.00 99.99     0.275 HD
ATOM     69  HZ3 LYS     2      52.151  41.086  49.020  1.00 99.99     0.275 HD
ENDBRANCH  65  66
ENDBRANCH  64  65
ENDBRANCH  63  64
ENDBRANCH  62  63
ENDBRANCH  10  62
ENDBRANCH   7  10
ENDBRANCH   5   6
BRANCH   5  70
ATOM     70  CB  LYS     1      58.146  41.764  45.515  1.00  0.00     0.040 C 
BRANCH  70  71
ATOM     71  CG  LYS     1      57.093  41.000  44.693  1.00  0.00     0.004 C 
BRANCH  71  72
ATOM     72  CD  LYS     1      56.045  40.264  45.543  1.00  0.00     0.032 C 
BRANCH  72  73
ATOM     73  CE  LYS     1      55.138  39.395  44.657  1.00  0.00     0.206 C 
BRANCH  73  74
ATOM     74  NZ  LYS     1      54.393  38.364  45.403  1.00  0.00    -0.064 N 
ATOM     75  HZ3 LYS     1      54.035  38.745  46.255  1.00 99.99     0.275 HD
ATOM     76  HZ2 LYS     1      54.990  37.588  45.608  1.00 99.99     0.275 HD
ATOM     77  HZ1 LYS     1      53.626  38.040  44.847  1.00 99.99     0.275 HD
ENDBRANCH  73  74
ENDBRANCH  72  73
ENDBRANCH  71  72
ENDBRANCH  70  71
ENDBRANCH   5  70
ENDBRANCH   1   5
TORSDOF 34
ENDMDL
MODEL 5
REMARK VINA RESULT:      -4.2      3.278      8.776
REMARK WARNING: 32 MAX_TORS EXCEEDED!!!
REMARK  34 active torsions:
REMARK  status: ('A' for Active; 'I' for Inactive)
REMARK    1  A    between atoms: N_1  and  CA_2 
REMARK    2  A    between atoms: CA_2  and  C_3 
REMARK    3  A    between atoms: CA_2  and  CB_5 
REMARK       I    between atoms: C_3  and  N_16 
REMARK    4  A    between atoms: CB_5  and  CG_6 
REMARK    5  A    between atoms: CG_6  and  CD_7 
REMARK    6  A    between atoms: CD_7  and  CE_8 
REMARK    7  A    between atoms: CE_8  and  NZ_9 
REMARK    8  A    between atoms: N_16  and  CA_17 
REMARK    9  A    between atoms: CA_17  and  C_18 
REMARK   10  A    between atoms: CA_17  and  CB_20 
REMARK       I    between atoms: C_18  and  N_29 
REMARK   11  A    between atoms: CB_20  and  CG_21 
REMARK   12  A    between atoms: CG_21  and  CD_22 
REMARK   13  A    between atoms: CD_22  and  CE_23 
REMARK   14  A    between atoms: CE_23  and  NZ_24 
REMARK   15  A    between atoms: N_29  and  CA_30 
REMARK   16  A    between atoms: CA_30  and  C_31 
REMARK   17  A    between atoms: CA_30  and  CB_33 
REMARK       I    between atoms: C_31  and  N_42 
REMARK   18  A    between atoms: CB_33  and  CG_34 
REMARK   19  A    between atoms: CG_34  and  CD_35 
REMARK   20  A    between atoms: CD_35  and  CE_36 
REMARK   21  A    between atoms: CE_36  and  NZ_37 
REMARK   22  A    between atoms: N_42  and  CA_43 
REMARK   23  A    between atoms: CA_43  and  CB_46 
REMARK   24  A    between atoms: CA_43  and  C_44 
REMARK       I    between atoms: C_44  and  N_51 
REMARK   25  A    between atoms: CB_46  and  CG_47 
REMARK   26  A    between atoms: N_51  and  CA_52 
REMARK   27  A    between atoms: CA_52  and  C_53 
REMARK       I    between atoms: C_53  and  N_57 
REMARK   28  A    between atoms: N_57  and  CA_58 
REMARK   29  A    between atoms: CA_58  and  C_59 
REMARK   30  A    between atoms: CA_58  and  CB_61 
REMARK       I    between atoms: C_59  and  N_71 
REMARK   31  A    between atoms: CB_61  and  CG_62 
REMARK   32  A    between atoms: CZ_67  and  OH_68 
REMARK   33  A    between atoms: N_71  and  CA_72 
REMARK   34  A    between atoms: CA_72  and  C_73 
ROOT
ATOM      1  N   LYS     1      58.330  40.240  57.363  1.00  0.00    -0.058 N 
ATOM      2  H1  LYS     1      58.182  39.833  58.264  1.00 99.99     0.276 HD
ATOM      3  H2  LYS     1      59.285  40.212  57.142  1.00 99.99     0.276 HD
ATOM      4  H3  LYS     1      58.102  41.206  57.422  1.00 99.99     0.276 HD
ENDROOT
BRANCH   1   5
ATOM      5  CA  LYS     1      57.477  39.530  56.380  1.00  0.00     0.255 C 
BRANCH   5   6
ATOM      6  C   LYS     1      58.055  39.797  54.967  1.00  0.00     0.259 C 
ATOM      7  N   LYS     2      58.443  41.033  54.610  1.00  0.00    -0.338 N 
ATOM      8  H   LYS     2      58.374  41.799  55.248  1.00 99.99     0.164 HD
ATOM      9  O   LYS     1      58.451  38.796  54.373  1.00  0.00    -0.271 OA
BRANCH   7  10
ATOM     10  CA  LYS     2      58.964  41.427  53.269  1.00  0.00     0.159 C 
BRANCH  10  11
ATOM     11  C   LYS     2      60.495  41.546  53.086  1.00  0.00     0.251 C 
ATOM     12  N   LYS     3      60.976  41.744  51.851  1.00  0.00    -0.338 N 
ATOM     13  H   LYS     3      60.380  41.682  51.052  1.00 99.99     0.164 HD
ATOM     14  O   LYS     2      61.198  41.630  54.089  1.00  0.00    -0.271 OA
BRANCH  12  15
ATOM     15  CA  LYS     3      62.402  42.003  51.525  1.00  0.00     0.159 C 
BRANCH  15  16
ATOM     16  C   LYS     3      62.644  43.168  50.528  1.00  0.00     0.251 C 
ATOM     17  O   LYS     3      61.795  44.050  50.416  1.00  0.00    -0.271 OA
ATOM     18  N   LEU     4      63.634  43.011  49.647  1.00  0.00    -0.338 N 
ATOM     19  H   LEU     4      64.131  42.141  49.580  1.00 99.99     0.164 HD
BRANCH  18  20
ATOM     20  CA  LEU     4      64.029  43.997  48.609  1.00  0.00     0.159 C 
BRANCH  20  21
ATOM     21  CB  LEU     4      65.349  44.660  49.027  1.00  0.00     0.032 C 
BRANCH  21  22
ATOM     22  CG  LEU     4      65.202  46.010  49.739  1.00  0.00     0.002 C 
ATOM     23  CD1 LEU     4      66.398  46.888  49.370  1.00  0.00     0.000 C 
ATOM     24  CD2 LEU     4      63.901  46.720  49.348  1.00  0.00     0.000 C 
ENDBRANCH  21  22
ENDBRANCH  20  21
BRANCH  20  25
ATOM     25  C   LEU     4      64.183  43.465  47.165  1.00  0.00     0.251 C 
ATOM     26  N   ALA     5      63.740  42.228  46.958  1.00  0.00    -0.338 N 
ATOM     27  H   ALA     5      63.478  41.638  47.723  1.00 99.99     0.164 HD
ATOM     28  O   LEU     4      64.877  44.066  46.348  1.00  0.00    -0.271 OA
BRANCH  26  29
ATOM     29  CA  ALA     5      63.682  41.553  45.644  1.00  0.00     0.159 C 
ATOM     30  CB  ALA     5      63.526  40.052  45.905  1.00  0.00     0.034 C 
BRANCH  29  31
ATOM     31  C   ALA     5      62.541  42.082  44.741  1.00  0.00     0.251 C 
ATOM     32  N   TYR     6      61.333  41.581  44.993  1.00  0.00    -0.337 N 
ATOM     33  H   TYR     6      61.231  40.750  45.540  1.00 99.99     0.164 HD
ATOM     34  O   ALA     5      62.768  42.832  43.794  1.00  0.00    -0.271 OA
BRANCH  32  35
ATOM     35  CA  TYR     6      60.064  42.063  44.399  1.00  0.00     0.164 C 
BRANCH  35  36
ATOM     36  C   TYR     6      58.877  41.909  45.375  1.00  0.00     0.251 C 
ATOM     37  O   TYR     6      57.907  41.211  45.088  1.00  0.00    -0.271 OA
ATOM     38  N   ALA     7      59.083  42.395  46.597  1.00  0.00    -0.336 N 
ATOM     39  H   ALA     7      59.963  42.799  46.841  1.00 99.99     0.164 HD
BRANCH  38  40
ATOM     40  CA  ALA     7      58.088  42.434  47.686  1.00  0.00     0.168 C 
ATOM     41  CB  ALA     7      58.802  42.105  49.002  1.00  0.00     0.036 C 
BRANCH  40  42
ATOM     42  C   ALA     7      57.481  43.844  47.778  1.00  0.00     0.206 C 
ATOM     43  OXT ALA     7      58.274  44.788  47.562  1.00 99.99    -0.646 OA
ATOM     44  O   ALA     7      56.245  43.940  47.931  1.00 99.99    -0.646 OA
ENDBRANCH  40  42
ENDBRANCH  38  40
ENDBRANCH  35  36
BRANCH  35  45
ATOM     45  CB  TYR     6      59.709  41.272  43.135  1.00  0.00     0.056 C 
BRANCH  45  46
ATOM     46  CG  TYR     6      59.334  42.028  41.854  1.00  0.00    -0.044 A 
ATOM     47  CD2 TYR     6      59.851  43.309  41.735  1.00  0.00     0.011 A 
ATOM     48  CE2 TYR     6      59.711  44.026  40.556  1.00  0.00     0.037 A 
ATOM     49  CZ  TYR     6      59.054  43.448  39.478  1.00  0.00     0.065 A 
ATOM     50  CE1 TYR     6      58.513  42.173  39.595  1.00  0.00     0.037 A 
ATOM     51  CD1 TYR     6      58.654  41.459  40.780  1.00  0.00     0.011 A 
BRANCH  49  52
ATOM     52  OH  TYR     6      59.020  44.094  38.283  1.00  0.00    -0.361 OA
ATOM     53  HH  TYR     6      59.847  43.880  37.767  1.00 99.99     0.217 HD
ENDBRANCH  49  52
ENDBRANCH  45  46
ENDBRANCH  35  45
ENDBRANCH  32  35
ENDBRANCH  29  31
ENDBRANCH  26  29
ENDBRANCH  20  25
ENDBRANCH  18  20
ENDBRANCH  15  16
BRANCH  15  54
ATOM     54  CB  LYS     3      63.032  40.696  51.013  1.00  0.00     0.032 C 
BRANCH  54  55
ATOM     55  CG  LYS     3      63.695  39.875  52.127  1.00  0.00     0.004 C 
BRANCH  55  56
ATOM     56  CD  LYS     3      63.217  38.420  52.158  1.00  0.00     0.032 C 
BRANCH  56  57
ATOM     57  CE  LYS     3      61.857  38.306  51.463  1.00  0.00     0.206 C 
BRANCH  57  58
ATOM     58  NZ  LYS     3      60.759  38.075  52.415  1.00  0.00    -0.064 N 
ATOM     59  HZ1 LYS     3      60.846  38.714  53.179  1.00 99.99     0.275 HD
ATOM     60  HZ3 LYS     3      60.803  37.138  52.763  1.00 99.99     0.275 HD
ATOM     61  HZ2 LYS     3      59.880  38.224  51.961  1.00 99.99     0.275 HD
ENDBRANCH  57  58
ENDBRANCH  56  57
ENDBRANCH  55  56
ENDBRANCH  54  55
ENDBRANCH  15  54
ENDBRANCH  12  15
ENDBRANCH  10  11
BRANCH  10  62
ATOM     62  CB  LYS     2      58.203  42.624  52.673  1.00  0.00     0.032 C 
BRANCH  62  63
ATOM     63  CG  LYS     2      56.701  42.327  52.555  1.00  0.00     0.004 C 
BRANCH  63  64
ATOM     64  CD  LYS     2      56.033  43.097  51.409  1.00  0.00     0.032 C 
BRANCH  64  65
ATOM     65  CE  LYS     2      55.063  42.197  50.635  1.00  0.00     0.206 C 
BRANCH  65  66
ATOM     66  NZ  LYS     2      54.700  40.981  51.382  1.00  0.00    -0.064 N 
ATOM     67  HZ1 LYS     2      53.723  40.999  51.595  1.00 99.99     0.275 HD
ATOM     68  HZ2 LYS     2      54.900  40.168  50.834  1.00 99.99     0.275 HD
ATOM     69  HZ3 LYS     2      55.215  40.942  52.238  1.00 99.99     0.275 HD
ENDBRANCH  65  66
ENDBRANCH  64  65
ENDBRANCH  63  64
ENDBRANCH  62  63
ENDBRANCH  10  62
ENDBRANCH   7  10
ENDBRANCH   5   6
BRANCH   5  70
ATOM     70  CB  LYS     1      55.976  39.849  56.566  1.00  0.00     0.040 C 
BRANCH  70  71
ATOM     71  CG  LYS     1      55.757  40.936  57.633  1.00  0.00     0.004 C 
BRANCH  71  72
ATOM     72  CD  LYS     1      55.013  40.448  58.886  1.00  0.00     0.032 C 
BRANCH  72  73
ATOM     73  CE  LYS     1      55.751  40.881  60.162  1.00  0.00     0.206 C 
BRANCH  73  74
ATOM     74  NZ  LYS     1      56.481  39.785  60.826  1.00  0.00    -0.064 N 
ATOM     75  HZ3 LYS     1      57.418  39.735  60.481  1.00 99.99     0.275 HD
ATOM     76  HZ2 LYS     1      56.016  38.914  60.663  1.00 99.99     0.275 HD
ATOM     77  HZ1 LYS     1      56.509  39.955  61.813  1.00 99.99     0.275 HD
ENDBRANCH  73  74
ENDBRANCH  72  73
ENDBRANCH  71  72
ENDBRANCH  70  71
ENDBRANCH   5  70
ENDBRANCH   1   5
TORSDOF 34
ENDMDL
MODEL 6
REMARK VINA RESULT:      -4.2      2.045      5.494
REMARK WARNING: 32 MAX_TORS EXCEEDED!!!
REMARK  34 active torsions:
REMARK  status: ('A' for Active; 'I' for Inactive)
REMARK    1  A    between atoms: N_1  and  CA_2 
REMARK    2  A    between atoms: CA_2  and  C_3 
REMARK    3  A    between atoms: CA_2  and  CB_5 
REMARK       I    between atoms: C_3  and  N_16 
REMARK    4  A    between atoms: CB_5  and  CG_6 
REMARK    5  A    between atoms: CG_6  and  CD_7 
REMARK    6  A    between atoms: CD_7  and  CE_8 
REMARK    7  A    between atoms: CE_8  and  NZ_9 
REMARK    8  A    between atoms: N_16  and  CA_17 
REMARK    9  A    between atoms: CA_17  and  C_18 
REMARK   10  A    between atoms: CA_17  and  CB_20 
REMARK       I    between atoms: C_18  and  N_29 
REMARK   11  A    between atoms: CB_20  and  CG_21 
REMARK   12  A    between atoms: CG_21  and  CD_22 
REMARK   13  A    between atoms: CD_22  and  CE_23 
REMARK   14  A    between atoms: CE_23  and  NZ_24 
REMARK   15  A    between atoms: N_29  and  CA_30 
REMARK   16  A    between atoms: CA_30  and  C_31 
REMARK   17  A    between atoms: CA_30  and  CB_33 
REMARK       I    between atoms: C_31  and  N_42 
REMARK   18  A    between atoms: CB_33  and  CG_34 
REMARK   19  A    between atoms: CG_34  and  CD_35 
REMARK   20  A    between atoms: CD_35  and  CE_36 
REMARK   21  A    between atoms: CE_36  and  NZ_37 
REMARK   22  A    between atoms: N_42  and  CA_43 
REMARK   23  A    between atoms: CA_43  and  CB_46 
REMARK   24  A    between atoms: CA_43  and  C_44 
REMARK       I    between atoms: C_44  and  N_51 
REMARK   25  A    between atoms: CB_46  and  CG_47 
REMARK   26  A    between atoms: N_51  and  CA_52 
REMARK   27  A    between atoms: CA_52  and  C_53 
REMARK       I    between atoms: C_53  and  N_57 
REMARK   28  A    between atoms: N_57  and  CA_58 
REMARK   29  A    between atoms: CA_58  and  C_59 
REMARK   30  A    between atoms: CA_58  and  CB_61 
REMARK       I    between atoms: C_59  and  N_71 
REMARK   31  A    between atoms: CB_61  and  CG_62 
REMARK   32  A    between atoms: CZ_67  and  OH_68 
REMARK   33  A    between atoms: N_71  and  CA_72 
REMARK   34  A    between atoms: CA_72  and  C_73 
ROOT
ATOM      1  N   LYS     1      58.957  44.251  47.221  1.00  0.00    -0.058 N 
ATOM      2  H1  LYS     1      58.893  44.490  48.189  1.00 99.99     0.276 HD
ATOM      3  H2  LYS     1      59.732  43.666  47.079  1.00 99.99     0.276 HD
ATOM      4  H3  LYS     1      59.157  45.080  46.712  1.00 99.99     0.276 HD
ENDROOT
BRANCH   1   5
ATOM      5  CA  LYS     1      57.673  43.640  46.800  1.00  0.00     0.255 C 
BRANCH   5   6
ATOM      6  C   LYS     1      56.648  43.852  47.943  1.00  0.00     0.259 C 
ATOM      7  N   LYS     2      56.337  42.846  48.778  1.00  0.00    -0.338 N 
ATOM      8  H   LYS     2      56.765  41.948  48.683  1.00 99.99     0.164 HD
ATOM      9  O   LYS     1      56.438  45.027  48.238  1.00  0.00    -0.271 OA
BRANCH   7  10
ATOM     10  CA  LYS     2      55.333  42.909  49.878  1.00  0.00     0.159 C 
BRANCH  10  11
ATOM     11  C   LYS     2      55.846  42.890  51.338  1.00  0.00     0.251 C 
ATOM     12  N   LYS     3      56.509  41.808  51.767  1.00  0.00    -0.338 N 
ATOM     13  H   LYS     3      56.557  40.981  51.210  1.00 99.99     0.164 HD
ATOM     14  O   LYS     2      55.780  43.927  51.992  1.00  0.00    -0.271 OA
BRANCH  12  15
ATOM     15  CA  LYS     3      57.170  41.686  53.092  1.00  0.00     0.159 C 
BRANCH  15  16
ATOM     16  C   LYS     3      58.708  41.894  53.078  1.00  0.00     0.251 C 
ATOM     17  O   LYS     3      59.161  43.037  53.107  1.00  0.00    -0.271 OA
ATOM     18  N   LEU     4      59.457  40.834  52.762  1.00  0.00    -0.338 N 
ATOM     19  H   LEU     4      59.032  39.976  52.460  1.00 99.99     0.164 HD
BRANCH  18  20
ATOM     20  CA  LEU     4      60.940  40.818  52.687  1.00  0.00     0.159 C 
BRANCH  20  21
ATOM     21  CB  LEU     4      61.486  39.930  53.813  1.00  0.00     0.032 C 
BRANCH  21  22
ATOM     22  CG  LEU     4      61.578  40.603  55.187  1.00  0.00     0.002 C 
ATOM     23  CD1 LEU     4      61.054  39.629  56.243  1.00  0.00     0.000 C 
ATOM     24  CD2 LEU     4      63.017  41.006  55.526  1.00  0.00     0.000 C 
ENDBRANCH  21  22
ENDBRANCH  20  21
BRANCH  20  25
ATOM     25  C   LEU     4      61.564  40.357  51.350  1.00  0.00     0.251 C 
ATOM     26  N   ALA     5      60.714  40.214  50.337  1.00  0.00    -0.338 N 
ATOM     27  H   ALA     5      59.725  40.249  50.484  1.00 99.99     0.164 HD
ATOM     28  O   LEU     4      62.718  39.934  51.312  1.00  0.00    -0.271 OA
BRANCH  26  29
ATOM     29  CA  ALA     5      61.095  39.891  48.945  1.00  0.00     0.159 C 
ATOM     30  CB  ALA     5      59.806  39.585  48.176  1.00  0.00     0.034 C 
BRANCH  29  31
ATOM     31  C   ALA     5      61.897  41.024  48.258  1.00  0.00     0.251 C 
ATOM     32  N   TYR     6      63.213  41.000  48.467  1.00  0.00    -0.337 N 
ATOM     33  H   TYR     6      63.600  40.455  49.211  1.00 99.99     0.164 HD
ATOM     34  O   ALA     5      61.333  41.933  47.653  1.00  0.00    -0.271 OA
BRANCH  32  35
ATOM     35  CA  TYR     6      64.205  41.854  47.774  1.00  0.00     0.164 C 
BRANCH  35  36
ATOM     36  C   TYR     6      65.256  41.014  47.014  1.00  0.00     0.251 C 
ATOM     37  O   TYR     6      64.921  40.227  46.133  1.00  0.00    -0.271 OA
ATOM     38  N   ALA     7      66.523  41.365  47.230  1.00  0.00    -0.336 N 
ATOM     39  H   ALA     7      66.742  42.137  47.823  1.00 99.99     0.164 HD
BRANCH  38  40
ATOM     40  CA  ALA     7      67.709  40.679  46.682  1.00  0.00     0.168 C 
ATOM     41  CB  ALA     7      68.171  41.443  45.435  1.00  0.00     0.036 C 
BRANCH  40  42
ATOM     42  C   ALA     7      68.837  40.688  47.726  1.00  0.00     0.206 C 
ATOM     43  OXT ALA     7      69.807  41.434  47.467  1.00 99.99    -0.646 OA
ATOM     44  O   ALA     7      68.650  40.064  48.794  1.00 99.99    -0.646 OA
ENDBRANCH  40  42
ENDBRANCH  38  40
ENDBRANCH  35  36
BRANCH  35  45
ATOM     45  CB  TYR     6      64.971  42.733  48.770  1.00  0.00     0.056 C 
BRANCH  45  46
ATOM     46  CG  TYR     6      64.468  44.152  49.063  1.00  0.00    -0.044 A 
ATOM     47  CD2 TYR     6      65.433  45.148  49.061  1.00  0.00     0.011 A 
ATOM     48  CE2 TYR     6      65.075  46.485  49.156  1.00  0.00     0.037 A 
ATOM     49  CZ  TYR     6      63.732  46.830  49.244  1.00  0.00     0.065 A 
ATOM     50  CE1 TYR     6      62.760  45.838  49.269  1.00  0.00     0.037 A 
ATOM     51  CD1 TYR     6      63.123  44.498  49.175  1.00  0.00     0.011 A 
BRANCH  49  52
ATOM     52  OH  TYR     6      63.369  48.138  49.213  1.00  0.00    -0.361 OA
ATOM     53  HH  TYR     6      64.111  48.697  49.576  1.00 99.99     0.217 HD
ENDBRANCH  49  52
ENDBRANCH  45  46
ENDBRANCH  35  45
ENDBRANCH  32  35
ENDBRANCH  29  31
ENDBRANCH  26  29
ENDBRANCH  20  25
ENDBRANCH  18  20
ENDBRANCH  15  16
BRANCH  15  54
ATOM     54  CB  LYS     3      56.801  40.320  53.698  1.00  0.00     0.032 C 
BRANCH  54  55
ATOM     55  CG  LYS     3      55.607  39.658  52.998  1.00  0.00     0.004 C 
BRANCH  55  56
ATOM     56  CD  LYS     3      54.302  39.804  53.784  1.00  0.00     0.032 C 
BRANCH  56  57
ATOM     57  CE  LYS     3      53.271  38.792  53.272  1.00  0.00     0.206 C 
BRANCH  57  58
ATOM     58  NZ  LYS     3      52.021  39.436  52.840  1.00  0.00    -0.064 N 
ATOM     59  HZ1 LYS     3      52.195  39.971  52.013  1.00 99.99     0.275 HD
ATOM     60  HZ3 LYS     3      51.685  40.043  53.560  1.00 99.99     0.275 HD
ATOM     61  HZ2 LYS     3      51.333  38.737  52.640  1.00 99.99     0.275 HD
ENDBRANCH  57  58
ENDBRANCH  56  57
ENDBRANCH  55  56
ENDBRANCH  54  55
ENDBRANCH  15  54
ENDBRANCH  12  15
ENDBRANCH  10  11
BRANCH  10  62
ATOM     62  CB  LYS     2      54.156  41.944  49.654  1.00  0.00     0.032 C 
BRANCH  62  63
ATOM     63  CG  LYS     2      54.546  40.799  48.708  1.00  0.00     0.004 C 
BRANCH  63  64
ATOM     64  CD  LYS     2      53.613  39.588  48.827  1.00  0.00     0.032 C 
BRANCH  64  65
ATOM     65  CE  LYS     2      53.677  38.718  47.566  1.00  0.00     0.206 C 
BRANCH  65  66
ATOM     66  NZ  LYS     2      54.343  39.399  46.443  1.00  0.00    -0.064 N 
ATOM     67  HZ1 LYS     2      55.135  39.909  46.783  1.00 99.99     0.275 HD
ATOM     68  HZ2 LYS     2      54.652  38.729  45.768  1.00 99.99     0.275 HD
ATOM     69  HZ3 LYS     2      53.710  40.042  46.011  1.00 99.99     0.275 HD
ENDBRANCH  65  66
ENDBRANCH  64  65
ENDBRANCH  63  64
ENDBRANCH  62  63
ENDBRANCH  10  62
ENDBRANCH   7  10
ENDBRANCH   5   6
BRANCH   5  70
ATOM     70  CB  LYS     1      57.848  42.184  46.313  1.00  0.00     0.040 C 
BRANCH  70  71
ATOM     71  CG  LYS     1      58.069  42.119  44.791  1.00  0.00     0.004 C 
BRANCH  71  72
ATOM     72  CD  LYS     1      59.510  41.776  44.379  1.00  0.00     0.032 C 
BRANCH  72  73
ATOM     73  CE  LYS     1      60.300  43.051  44.046  1.00  0.00     0.206 C 
BRANCH  73  74
ATOM     74  NZ  LYS     1      61.489  43.249  44.895  1.00  0.00    -0.064 N 
ATOM     75  HZ3 LYS     1      62.235  43.645  44.359  1.00 99.99     0.275 HD
ATOM     76  HZ2 LYS     1      61.784  42.376  45.284  1.00 99.99     0.275 HD
ATOM     77  HZ1 LYS     1      61.263  43.874  45.644  1.00 99.99     0.275 HD
ENDBRANCH  73  74
ENDBRANCH  72  73
ENDBRANCH  71  72
ENDBRANCH  70  71
ENDBRANCH   5  70
ENDBRANCH   1   5
TORSDOF 34
ENDMDL
MODEL 7
REMARK VINA RESULT:      -4.1      2.741      9.007
REMARK WARNING: 32 MAX_TORS EXCEEDED!!!
REMARK  34 active torsions:
REMARK  status: ('A' for Active; 'I' for Inactive)
REMARK    1  A    between atoms: N_1  and  CA_2 
REMARK    2  A    between atoms: CA_2  and  C_3 
REMARK    3  A    between atoms: CA_2  and  CB_5 
REMARK       I    between atoms: C_3  and  N_16 
REMARK    4  A    between atoms: CB_5  and  CG_6 
REMARK    5  A    between atoms: CG_6  and  CD_7 
REMARK    6  A    between atoms: CD_7  and  CE_8 
REMARK    7  A    between atoms: CE_8  and  NZ_9 
REMARK    8  A    between atoms: N_16  and  CA_17 
REMARK    9  A    between atoms: CA_17  and  C_18 
REMARK   10  A    between atoms: CA_17  and  CB_20 
REMARK       I    between atoms: C_18  and  N_29 
REMARK   11  A    between atoms: CB_20  and  CG_21 
REMARK   12  A    between atoms: CG_21  and  CD_22 
REMARK   13  A    between atoms: CD_22  and  CE_23 
REMARK   14  A    between atoms: CE_23  and  NZ_24 
REMARK   15  A    between atoms: N_29  and  CA_30 
REMARK   16  A    between atoms: CA_30  and  C_31 
REMARK   17  A    between atoms: CA_30  and  CB_33 
REMARK       I    between atoms: C_31  and  N_42 
REMARK   18  A    between atoms: CB_33  and  CG_34 
REMARK   19  A    between atoms: CG_34  and  CD_35 
REMARK   20  A    between atoms: CD_35  and  CE_36 
REMARK   21  A    between atoms: CE_36  and  NZ_37 
REMARK   22  A    between atoms: N_42  and  CA_43 
REMARK   23  A    between atoms: CA_43  and  CB_46 
REMARK   24  A    between atoms: CA_43  and  C_44 
REMARK       I    between atoms: C_44  and  N_51 
REMARK   25  A    between atoms: CB_46  and  CG_47 
REMARK   26  A    between atoms: N_51  and  CA_52 
REMARK   27  A    between atoms: CA_52  and  C_53 
REMARK       I    between atoms: C_53  and  N_57 
REMARK   28  A    between atoms: N_57  and  CA_58 
REMARK   29  A    between atoms: CA_58  and  C_59 
REMARK   30  A    between atoms: CA_58  and  CB_61 
REMARK       I    between atoms: C_59  and  N_71 
REMARK   31  A    between atoms: CB_61  and  CG_62 
REMARK   32  A    between atoms: CZ_67  and  OH_68 
REMARK   33  A    between atoms: N_71  and  CA_72 
REMARK   34  A    between atoms: CA_72  and  C_73 
ROOT
ATOM      1  N   LYS     1      64.051  42.003  50.048  1.00  0.00    -0.058 N 
ATOM      2  H1  LYS     1      63.644  41.514  50.820  1.00 99.99     0.276 HD
ATOM      3  H2  LYS     1      64.300  41.362  49.349  1.00 99.99     0.276 HD
ATOM      4  H3  LYS     1      64.907  42.403  50.355  1.00 99.99     0.276 HD
ENDROOT
BRANCH   1   5
ATOM      5  CA  LYS     1      63.092  43.035  49.587  1.00  0.00     0.255 C 
BRANCH   5   6
ATOM      6  C   LYS     1      63.486  43.438  48.143  1.00  0.00     0.259 C 
ATOM      7  N   LYS     2      64.773  43.424  47.756  1.00  0.00    -0.338 N 
ATOM      8  H   LYS     2      65.497  43.147  48.386  1.00 99.99     0.164 HD
ATOM      9  O   LYS     1      62.564  43.413  47.329  1.00  0.00    -0.271 OA
BRANCH   7  10
ATOM     10  CA  LYS     2      65.282  43.838  46.417  1.00  0.00     0.159 C 
BRANCH  10  11
ATOM     11  C   LYS     2      65.169  42.830  45.248  1.00  0.00     0.251 C 
ATOM     12  N   LYS     3      63.953  42.378  44.911  1.00  0.00    -0.338 N 
ATOM     13  H   LYS     3      63.157  42.576  45.480  1.00 99.99     0.164 HD
ATOM     14  O   LYS     2      66.165  42.617  44.564  1.00  0.00    -0.271 OA
BRANCH  12  15
ATOM     15  CA  LYS     3      63.663  41.510  43.741  1.00  0.00     0.159 C 
BRANCH  15  16
ATOM     16  C   LYS     3      62.232  41.655  43.159  1.00  0.00     0.251 C 
ATOM     17  O   LYS     3      61.621  40.648  42.805  1.00  0.00    -0.271 OA
ATOM     18  N   LEU     4      61.840  42.886  42.821  1.00  0.00    -0.338 N 
ATOM     19  H   LEU     4      62.481  43.658  42.859  1.00 99.99     0.164 HD
BRANCH  18  20
ATOM     20  CA  LEU     4      60.518  43.243  42.247  1.00  0.00     0.159 C 
BRANCH  20  21
ATOM     21  CB  LEU     4      60.372  42.571  40.875  1.00  0.00     0.032 C 
BRANCH  21  22
ATOM     22  CG  LEU     4      59.285  43.165  39.972  1.00  0.00     0.002 C 
ATOM     23  CD1 LEU     4      59.487  44.679  39.898  1.00  0.00     0.000 C 
ATOM     24  CD2 LEU     4      59.332  42.569  38.560  1.00  0.00     0.000 C 
ENDBRANCH  21  22
ENDBRANCH  20  21
BRANCH  20  25
ATOM     25  C   LEU     4      59.274  42.897  43.099  1.00  0.00     0.251 C 
ATOM     26  N   ALA     5      58.766  41.683  42.910  1.00  0.00    -0.338 N 
ATOM     27  H   ALA     5      59.077  41.105  42.154  1.00 99.99     0.164 HD
ATOM     28  O   LEU     4      58.678  43.776  43.719  1.00  0.00    -0.271 OA
BRANCH  26  29
ATOM     29  CA  ALA     5      57.653  41.095  43.685  1.00  0.00     0.159 C 
ATOM     30  CB  ALA     5      57.265  39.778  43.005  1.00  0.00     0.034 C 
BRANCH  29  31
ATOM     31  C   ALA     5      58.005  40.869  45.175  1.00  0.00     0.251 C 
ATOM     32  N   TYR     6      57.709  41.880  45.992  1.00  0.00    -0.337 N 
ATOM     33  H   TYR     6      57.520  42.791  45.627  1.00 99.99     0.164 HD
ATOM     34  O   ALA     5      58.612  39.866  45.546  1.00  0.00    -0.271 OA
BRANCH  32  35
ATOM     35  CA  TYR     6      57.775  41.832  47.472  1.00  0.00     0.164 C 
BRANCH  35  36
ATOM     36  C   TYR     6      56.646  42.658  48.125  1.00  0.00     0.251 C 
ATOM     37  O   TYR     6      56.405  43.806  47.757  1.00  0.00    -0.271 OA
ATOM     38  N   ALA     7      55.838  41.973  48.932  1.00  0.00    -0.336 N 
ATOM     39  H   ALA     7      55.965  40.991  49.063  1.00 99.99     0.164 HD
BRANCH  38  40
ATOM     40  CA  ALA     7      54.732  42.541  49.727  1.00  0.00     0.168 C 
ATOM     41  CB  ALA     7      53.643  41.472  49.867  1.00  0.00     0.036 C 
BRANCH  40  42
ATOM     42  C   ALA     7      55.246  42.925  51.124  1.00  0.00     0.206 C 
ATOM     43  OXT ALA     7      55.550  41.967  51.870  1.00 99.99    -0.646 OA
ATOM     44  O   ALA     7      55.442  44.137  51.363  1.00 99.99    -0.646 OA
ENDBRANCH  40  42
ENDBRANCH  38  40
ENDBRANCH  35  36
BRANCH  35  45
ATOM     45  CB  TYR     6      59.102  42.405  47.985  1.00  0.00     0.056 C 
BRANCH  45  46
ATOM     46  CG  TYR     6      59.900  41.628  49.038  1.00  0.00    -0.044 A 
ATOM     47  CD2 TYR     6      59.721  42.034  50.352  1.00  0.00     0.011 A 
ATOM     48  CE2 TYR     6      60.265  41.307  51.402  1.00  0.00     0.037 A 
ATOM     49  CZ  TYR     6      60.989  40.153  51.132  1.00  0.00     0.065 A 
ATOM     50  CE1 TYR     6      61.193  39.751  49.817  1.00  0.00     0.037 A 
ATOM     51  CD1 TYR     6      60.646  40.484  48.769  1.00  0.00     0.011 A 
BRANCH  49  52
ATOM     52  OH  TYR     6      61.419  39.371  52.156  1.00  0.00    -0.361 OA
ATOM     53  HH  TYR     6      60.732  38.676  52.353  1.00 99.99     0.217 HD
ENDBRANCH  49  52
ENDBRANCH  45  46
ENDBRANCH  35  45
ENDBRANCH  32  35
ENDBRANCH  29  31
ENDBRANCH  26  29
ENDBRANCH  20  25
ENDBRANCH  18  20
ENDBRANCH  15  16
BRANCH  15  54
ATOM     54  CB  LYS     3      63.958  40.051  44.129  1.00  0.00     0.032 C 
BRANCH  54  55
ATOM     55  CG  LYS     3      63.459  39.694  45.535  1.00  0.00     0.004 C 
BRANCH  55  56
ATOM     56  CD  LYS     3      64.574  39.173  46.447  1.00  0.00     0.032 C 
BRANCH  56  57
ATOM     57  CE  LYS     3      63.964  38.499  47.680  1.00  0.00     0.206 C 
BRANCH  57  58
ATOM     58  NZ  LYS     3      64.779  38.698  48.889  1.00  0.00    -0.064 N 
ATOM     59  HZ1 LYS     3      65.127  37.814  49.201  1.00 99.99     0.275 HD
ATOM     60  HZ3 LYS     3      64.221  39.106  49.611  1.00 99.99     0.275 HD
ATOM     61  HZ2 LYS     3      65.552  39.299  48.681  1.00 99.99     0.275 HD
ENDBRANCH  57  58
ENDBRANCH  56  57
ENDBRANCH  55  56
ENDBRANCH  54  55
ENDBRANCH  15  54
ENDBRANCH  12  15
ENDBRANCH  10  11
BRANCH  10  62
ATOM     62  CB  LYS     2      66.670  44.497  46.496  1.00  0.00     0.032 C 
BRANCH  62  63
ATOM     63  CG  LYS     2      67.523  43.870  47.607  1.00  0.00     0.004 C 
BRANCH  63  64
ATOM     64  CD  LYS     2      68.450  42.763  47.090  1.00  0.00     0.032 C 
BRANCH  64  65
ATOM     65  CE  LYS     2      69.520  43.336  46.152  1.00  0.00     0.206 C 
BRANCH  65  66
ATOM     66  NZ  LYS     2      69.128  43.262  44.735  1.00  0.00    -0.064 N 
ATOM     67  HZ1 LYS     2      68.429  43.951  44.545  1.00 99.99     0.275 HD
ATOM     68  HZ2 LYS     2      69.921  43.431  44.149  1.00 99.99     0.275 HD
ATOM     69  HZ3 LYS     2      68.750  42.358  44.534  1.00 99.99     0.275 HD
ENDBRANCH  65  66
ENDBRANCH  64  65
ENDBRANCH  63  64
ENDBRANCH  62  63
ENDBRANCH  10  62
ENDBRANCH   7  10
ENDBRANCH   5   6
BRANCH   5  70
ATOM     70  CB  LYS     1      62.949  44.197  50.596  1.00  0.00     0.040 C 
BRANCH  70  71
ATOM     71  CG  LYS     1      62.429  45.476  49.915  1.00  0.00     0.004 C 
BRANCH  71  72
ATOM     72  CD  LYS     1      63.342  46.700  50.095  1.00  0.00     0.032 C 
BRANCH  72  73
ATOM     73  CE  LYS     1      64.818  46.275  50.156  1.00  0.00     0.206 C 
BRANCH  73  74
ATOM     74  NZ  LYS     1      65.678  46.982  49.190  1.00  0.00    -0.064 N 
ATOM     75  HZ3 LYS     1      66.438  46.395  48.910  1.00 99.99     0.275 HD
ATOM     76  HZ2 LYS     1      66.036  47.822  49.597  1.00 99.99     0.275 HD
ATOM     77  HZ1 LYS     1      65.140  47.221  48.380  1.00 99.99     0.275 HD
ENDBRANCH  73  74
ENDBRANCH  72  73
ENDBRANCH  71  72
ENDBRANCH  70  71
ENDBRANCH   5  70
ENDBRANCH   1   5
TORSDOF 34
ENDMDL
MODEL 8
REMARK VINA RESULT:      -4.1      3.424      9.268
REMARK WARNING: 32 MAX_TORS EXCEEDED!!!
REMARK  34 active torsions:
REMARK  status: ('A' for Active; 'I' for Inactive)
REMARK    1  A    between atoms: N_1  and  CA_2 
REMARK    2  A    between atoms: CA_2  and  C_3 
REMARK    3  A    between atoms: CA_2  and  CB_5 
REMARK       I    between atoms: C_3  and  N_16 
REMARK    4  A    between atoms: CB_5  and  CG_6 
REMARK    5  A    between atoms: CG_6  and  CD_7 
REMARK    6  A    between atoms: CD_7  and  CE_8 
REMARK    7  A    between atoms: CE_8  and  NZ_9 
REMARK    8  A    between atoms: N_16  and  CA_17 
REMARK    9  A    between atoms: CA_17  and  C_18 
REMARK   10  A    between atoms: CA_17  and  CB_20 
REMARK       I    between atoms: C_18  and  N_29 
REMARK   11  A    between atoms: CB_20  and  CG_21 
REMARK   12  A    between atoms: CG_21  and  CD_22 
REMARK   13  A    between atoms: CD_22  and  CE_23 
REMARK   14  A    between atoms: CE_23  and  NZ_24 
REMARK   15  A    between atoms: N_29  and  CA_30 
REMARK   16  A    between atoms: CA_30  and  C_31 
REMARK   17  A    between atoms: CA_30  and  CB_33 
REMARK       I    between atoms: C_31  and  N_42 
REMARK   18  A    between atoms: CB_33  and  CG_34 
REMARK   19  A    between atoms: CG_34  and  CD_35 
REMARK   20  A    between atoms: CD_35  and  CE_36 
REMARK   21  A    between atoms: CE_36  and  NZ_37 
REMARK   22  A    between atoms: N_42  and  CA_43 
REMARK   23  A    between atoms: CA_43  and  CB_46 
REMARK   24  A    between atoms: CA_43  and  C_44 
REMARK       I    between atoms: C_44  and  N_51 
REMARK   25  A    between atoms: CB_46  and  CG_47 
REMARK   26  A    between atoms: N_51  and  CA_52 
REMARK   27  A    between atoms: CA_52  and  C_53 
REMARK       I    between atoms: C_53  and  N_57 
REMARK   28  A    between atoms: N_57  and  CA_58 
REMARK   29  A    between atoms: CA_58  and  C_59 
REMARK   30  A    between atoms: CA_58  and  CB_61 
REMARK       I    between atoms: C_59  and  N_71 
REMARK   31  A    between atoms: CB_61  and  CG_62 
REMARK   32  A    between atoms: CZ_67  and  OH_68 
REMARK   33  A    between atoms: N_71  and  CA_72 
REMARK   34  A    between atoms: CA_72  and  C_73 
ROOT
ATOM      1  N   LYS     1      53.161  40.213  50.340  1.00  0.00    -0.058 N 
ATOM      2  H1  LYS     1      52.212  40.531  50.330  1.00 99.99     0.276 HD
ATOM      3  H2  LYS     1      53.399  39.920  51.245  1.00 99.99     0.276 HD
ATOM      4  H3  LYS     1      53.747  40.993  50.153  1.00 99.99     0.276 HD
ENDROOT
BRANCH   1   5
ATOM      5  CA  LYS     1      53.311  39.150  49.318  1.00  0.00     0.255 C 
BRANCH   5   6
ATOM      6  C   LYS     1      53.880  39.802  48.032  1.00  0.00     0.259 C 
ATOM      7  N   LYS     2      54.365  39.041  47.037  1.00  0.00    -0.338 N 
ATOM      8  H   LYS     2      54.362  38.044  47.103  1.00 99.99     0.164 HD
ATOM      9  O   LYS     1      53.534  40.967  47.848  1.00  0.00    -0.271 OA
BRANCH   7  10
ATOM     10  CA  LYS     2      54.983  39.548  45.778  1.00  0.00     0.159 C 
BRANCH  10  11
ATOM     11  C   LYS     2      55.149  38.563  44.596  1.00  0.00     0.251 C 
ATOM     12  N   LYS     3      55.399  39.065  43.379  1.00  0.00    -0.338 N 
ATOM     13  H   LYS     3      55.346  40.047  43.208  1.00 99.99     0.164 HD
ATOM     14  O   LYS     2      55.218  37.363  44.843  1.00  0.00    -0.271 OA
BRANCH  12  15
ATOM     15  CA  LYS     3      55.705  38.255  42.172  1.00  0.00     0.159 C 
BRANCH  15  16
ATOM     16  C   LYS     3      57.009  38.653  41.431  1.00  0.00     0.251 C 
ATOM     17  O   LYS     3      57.720  37.773  40.949  1.00  0.00    -0.271 OA
ATOM     18  N   LEU     4      57.432  39.910  41.588  1.00  0.00    -0.338 N 
ATOM     19  H   LEU     4      56.972  40.531  42.229  1.00 99.99     0.164 HD
BRANCH  18  20
ATOM     20  CA  LEU     4      58.651  40.492  40.972  1.00  0.00     0.159 C 
BRANCH  20  21
ATOM     21  CB  LEU     4      58.310  41.877  40.404  1.00  0.00     0.032 C 
BRANCH  21  22
ATOM     22  CG  LEU     4      59.286  42.405  39.346  1.00  0.00     0.002 C 
ATOM     23  CD1 LEU     4      58.771  42.002  37.964  1.00  0.00     0.000 C 
ATOM     24  CD2 LEU     4      59.433  43.928  39.419  1.00  0.00     0.000 C 
ENDBRANCH  21  22
ENDBRANCH  20  21
BRANCH  20  25
ATOM     25  C   LEU     4      59.894  40.627  41.883  1.00  0.00     0.251 C 
ATOM     26  N   ALA     5      59.936  41.719  42.642  1.00  0.00    -0.338 N 
ATOM     27  H   ALA     5      59.286  42.468  42.505  1.00 99.99     0.164 HD
ATOM     28  O   LEU     4      60.866  39.891  41.727  1.00  0.00    -0.271 OA
BRANCH  26  29
ATOM     29  CA  ALA     5      60.965  42.007  43.664  1.00  0.00     0.159 C 
ATOM     30  CB  ALA     5      62.090  42.785  42.976  1.00  0.00     0.034 C 
BRANCH  29  31
ATOM     31  C   ALA     5      60.409  42.789  44.879  1.00  0.00     0.251 C 
ATOM     32  N   TYR     6      60.958  42.485  46.054  1.00  0.00    -0.337 N 
ATOM     33  H   TYR     6      61.490  41.646  46.166  1.00 99.99     0.164 HD
ATOM     34  O   ALA     5      59.455  43.557  44.765  1.00  0.00    -0.271 OA
BRANCH  32  35
ATOM     35  CA  TYR     6      60.733  43.221  47.320  1.00  0.00     0.164 C 
BRANCH  35  36
ATOM     36  C   TYR     6      62.059  43.692  47.956  1.00  0.00     0.251 C 
ATOM     37  O   TYR     6      63.138  43.465  47.413  1.00  0.00    -0.271 OA
ATOM     38  N   ALA     7      61.928  44.526  48.986  1.00  0.00    -0.336 N 
ATOM     39  H   ALA     7      61.023  44.829  49.282  1.00 99.99     0.164 HD
BRANCH  38  40
ATOM     40  CA  ALA     7      63.033  45.062  49.804  1.00  0.00     0.168 C 
ATOM     41  CB  ALA     7      63.349  46.480  49.315  1.00  0.00     0.036 C 
BRANCH  40  42
ATOM     42  C   ALA     7      62.599  45.120  51.278  1.00  0.00     0.206 C 
ATOM     43  OXT ALA     7      62.542  46.266  51.779  1.00 99.99    -0.646 OA
ATOM     44  O   ALA     7      62.220  44.060  51.820  1.00 99.99    -0.646 OA
ENDBRANCH  40  42
ENDBRANCH  38  40
ENDBRANCH  35  36
BRANCH  35  45
ATOM     45  CB  TYR     6      60.029  42.337  48.357  1.00  0.00     0.056 C 
BRANCH  45  46
ATOM     46  CG  TYR     6      58.514  42.465  48.550  1.00  0.00    -0.044 A 
ATOM     47  CD2 TYR     6      57.970  41.713  49.581  1.00  0.00     0.011 A 
ATOM     48  CE2 TYR     6      56.642  41.868  49.952  1.00  0.00     0.037 A 
ATOM     49  CZ  TYR     6      55.850  42.795  49.287  1.00  0.00     0.065 A 
ATOM     50  CE1 TYR     6      56.379  43.537  48.237  1.00  0.00     0.037 A 
ATOM     51  CD1 TYR     6      57.711  43.377  47.869  1.00  0.00     0.011 A 
BRANCH  49  52
ATOM     52  OH  TYR     6      54.587  43.040  49.723  1.00  0.00    -0.361 OA
ATOM     53  HH  TYR     6      54.175  42.188  50.039  1.00 99.99     0.217 HD
ENDBRANCH  49  52
ENDBRANCH  45  46
ENDBRANCH  35  45
ENDBRANCH  32  35
ENDBRANCH  29  31
ENDBRANCH  26  29
ENDBRANCH  20  25
ENDBRANCH  18  20
ENDBRANCH  15  16
BRANCH  15  54
ATOM     54  CB  LYS     3      54.493  38.308  41.227  1.00  0.00     0.032 C 
BRANCH  54  55
ATOM     55  CG  LYS     3      54.332  37.034  40.387  1.00  0.00     0.004 C 
BRANCH  55  56
ATOM     56  CD  LYS     3      54.155  37.325  38.894  1.00  0.00     0.032 C 
BRANCH  56  57
ATOM     57  CE  LYS     3      55.525  37.407  38.214  1.00  0.00     0.206 C 
BRANCH  57  58
ATOM     58  NZ  LYS     3      56.418  36.309  38.617  1.00  0.00    -0.064 N 
ATOM     59  HZ1 LYS     3      57.086  36.146  37.892  1.00 99.99     0.275 HD
ATOM     60  HZ3 LYS     3      55.885  35.477  38.768  1.00 99.99     0.275 HD
ATOM     61  HZ2 LYS     3      56.900  36.557  39.458  1.00 99.99     0.275 HD
ENDBRANCH  57  58
ENDBRANCH  56  57
ENDBRANCH  55  56
ENDBRANCH  54  55
ENDBRANCH  15  54
ENDBRANCH  12  15
ENDBRANCH  10  11
BRANCH  10  62
ATOM     62  CB  LYS     2      56.255  40.374  46.040  1.00  0.00     0.032 C 
BRANCH  62  63
ATOM     63  CG  LYS     2      57.333  39.532  46.737  1.00  0.00     0.004 C 
BRANCH  63  64
ATOM     64  CD  LYS     2      58.704  39.648  46.062  1.00  0.00     0.032 C 
BRANCH  64  65
ATOM     65  CE  LYS     2      58.759  38.807  44.781  1.00  0.00     0.206 C 
BRANCH  65  66
ATOM     66  NZ  LYS     2      58.413  37.395  45.016  1.00  0.00    -0.064 N 
ATOM     67  HZ1 LYS     2      58.827  37.088  45.873  1.00 99.99     0.275 HD
ATOM     68  HZ2 LYS     2      57.420  37.289  45.077  1.00 99.99     0.275 HD
ATOM     69  HZ3 LYS     2      58.764  36.830  44.269  1.00 99.99     0.275 HD
ENDBRANCH  65  66
ENDBRANCH  64  65
ENDBRANCH  63  64
ENDBRANCH  62  63
ENDBRANCH  10  62
ENDBRANCH   7  10
ENDBRANCH   5   6
BRANCH   5  70
ATOM     70  CB  LYS     1      52.019  38.321  49.139  1.00  0.00     0.040 C 
BRANCH  70  71
ATOM     71  CG  LYS     1      50.770  39.127  49.537  1.00  0.00     0.004 C 
BRANCH  71  72
ATOM     72  CD  LYS     1      49.788  38.362  50.439  1.00  0.00     0.032 C 
BRANCH  72  73
ATOM     73  CE  LYS     1      48.701  37.672  49.599  1.00  0.00     0.206 C 
BRANCH  73  74
ATOM     74  NZ  LYS     1      48.423  38.348  48.319  1.00  0.00    -0.064 N 
ATOM     75  HZ3 LYS     1      49.278  38.561  47.847  1.00 99.99     0.275 HD
ATOM     76  HZ2 LYS     1      47.910  39.192  48.480  1.00 99.99     0.275 HD
ATOM     77  HZ1 LYS     1      47.874  37.745  47.738  1.00 99.99     0.275 HD
ENDBRANCH  73  74
ENDBRANCH  72  73
ENDBRANCH  71  72
ENDBRANCH  70  71
ENDBRANCH   5  70
ENDBRANCH   1   5
TORSDOF 34
ENDMDL
MODEL 9
REMARK VINA RESULT:      -4.1      2.316      8.417
REMARK WARNING: 32 MAX_TORS EXCEEDED!!!
REMARK  34 active torsions:
REMARK  status: ('A' for Active; 'I' for Inactive)
REMARK    1  A    between atoms: N_1  and  CA_2 
REMARK    2  A    between atoms: CA_2  and  C_3 
REMARK    3  A    between atoms: CA_2  and  CB_5 
REMARK       I    between atoms: C_3  and  N_16 
REMARK    4  A    between atoms: CB_5  and  CG_6 
REMARK    5  A    between atoms: CG_6  and  CD_7 
REMARK    6  A    between atoms: CD_7  and  CE_8 
REMARK    7  A    between atoms: CE_8  and  NZ_9 
REMARK    8  A    between atoms: N_16  and  CA_17 
REMARK    9  A    between atoms: CA_17  and  C_18 
REMARK   10  A    between atoms: CA_17  and  CB_20 
REMARK       I    between atoms: C_18  and  N_29 
REMARK   11  A    between atoms: CB_20  and  CG_21 
REMARK   12  A    between atoms: CG_21  and  CD_22 
REMARK   13  A    between atoms: CD_22  and  CE_23 
REMARK   14  A    between atoms: CE_23  and  NZ_24 
REMARK   15  A    between atoms: N_29  and  CA_30 
REMARK   16  A    between atoms: CA_30  and  C_31 
REMARK   17  A    between atoms: CA_30  and  CB_33 
REMARK       I    between atoms: C_31  and  N_42 
REMARK   18  A    between atoms: CB_33  and  CG_34 
REMARK   19  A    between atoms: CG_34  and  CD_35 
REMARK   20  A    between atoms: CD_35  and  CE_36 
REMARK   21  A    between atoms: CE_36  and  NZ_37 
REMARK   22  A    between atoms: N_42  and  CA_43 
REMARK   23  A    between atoms: CA_43  and  CB_46 
REMARK   24  A    between atoms: CA_43  and  C_44 
REMARK       I    between atoms: C_44  and  N_51 
REMARK   25  A    between atoms: CB_46  and  CG_47 
REMARK   26  A    between atoms: N_51  and  CA_52 
REMARK   27  A    between atoms: CA_52  and  C_53 
REMARK       I    between atoms: C_53  and  N_57 
REMARK   28  A    between atoms: N_57  and  CA_58 
REMARK   29  A    between atoms: CA_58  and  C_59 
REMARK   30  A    between atoms: CA_58  and  CB_61 
REMARK       I    between atoms: C_59  and  N_71 
REMARK   31  A    between atoms: CB_61  and  CG_62 
REMARK   32  A    between atoms: CZ_67  and  OH_68 
REMARK   33  A    between atoms: N_71  and  CA_72 
REMARK   34  A    between atoms: CA_72  and  C_73 
ROOT
ATOM      1  N   LYS     1      55.850  42.779  48.908  1.00  0.00    -0.058 N 
ATOM      2  H1  LYS     1      55.726  43.567  48.305  1.00 99.99     0.276 HD
ATOM      3  H2  LYS     1      56.774  42.759  49.236  1.00 99.99     0.276 HD
ATOM      4  H3  LYS     1      55.747  41.955  48.361  1.00 99.99     0.276 HD
ENDROOT
BRANCH   1   5
ATOM      5  CA  LYS     1      54.841  42.852  49.992  1.00  0.00     0.255 C 
BRANCH   5   6
ATOM      6  C   LYS     1      55.598  42.886  51.344  1.00  0.00     0.259 C 
ATOM      7  N   LYS     2      56.536  41.966  51.627  1.00  0.00    -0.338 N 
ATOM      8  H   LYS     2      56.768  41.250  50.970  1.00 99.99     0.164 HD
ATOM      9  O   LYS     1      55.545  43.961  51.940  1.00  0.00    -0.271 OA
BRANCH   7  10
ATOM     10  CA  LYS     2      57.293  41.862  52.907  1.00  0.00     0.159 C 
BRANCH  10  11
ATOM     11  C   LYS     2      58.805  42.190  52.891  1.00  0.00     0.251 C 
ATOM     12  N   LYS     3      59.634  41.351  52.255  1.00  0.00    -0.338 N 
ATOM     13  H   LYS     3      59.310  40.469  51.916  1.00 99.99     0.164 HD
ATOM     14  O   LYS     2      59.167  43.287  53.307  1.00  0.00    -0.271 OA
BRANCH  12  15
ATOM     15  CA  LYS     3      61.085  41.587  52.043  1.00  0.00     0.159 C 
BRANCH  15  16
ATOM     16  C   LYS     3      61.469  42.059  50.615  1.00  0.00     0.251 C 
ATOM     17  O   LYS     3      62.006  41.267  49.844  1.00  0.00    -0.271 OA
ATOM     18  N   LEU     4      61.443  43.374  50.388  1.00  0.00    -0.338 N 
ATOM     19  H   LEU     4      61.272  44.022  51.135  1.00 99.99     0.164 HD
BRANCH  18  20
ATOM     20  CA  LEU     4      61.776  44.033  49.099  1.00  0.00     0.159 C 
BRANCH  20  21
ATOM     21  CB  LEU     4      63.298  44.199  49.002  1.00  0.00     0.032 C 
BRANCH  21  22
ATOM     22  CG  LEU     4      63.800  45.646  49.050  1.00  0.00     0.002 C 
ATOM     23  CD1 LEU     4      62.641  46.550  49.472  1.00  0.00     0.000 C 
ATOM     24  CD2 LEU     4      64.966  45.811  50.032  1.00  0.00     0.000 C 
ENDBRANCH  21  22
ENDBRANCH  20  21
BRANCH  20  25
ATOM     25  C   LEU     4      61.274  43.337  47.812  1.00  0.00     0.251 C 
ATOM     26  N   ALA     5      62.151  43.271  46.815  1.00  0.00    -0.338 N 
ATOM     27  H   ALA     5      63.013  43.779  46.850  1.00 99.99     0.164 HD
ATOM     28  O   LEU     4      60.080  43.086  47.663  1.00  0.00    -0.271 OA
BRANCH  26  29
ATOM     29  CA  ALA     5      61.935  42.560  45.536  1.00  0.00     0.159 C 
ATOM     30  CB  ALA     5      62.276  41.085  45.768  1.00  0.00     0.034 C 
BRANCH  29  31
ATOM     31  C   ALA     5      60.495  42.720  44.991  1.00  0.00     0.251 C 
ATOM     32  N   TYR     6      59.715  41.645  45.112  1.00  0.00    -0.337 N 
ATOM     33  H   TYR     6      60.113  40.747  45.298  1.00 99.99     0.164 HD
ATOM     34  O   ALA     5      60.143  43.736  44.396  1.00  0.00    -0.271 OA
BRANCH  32  35
ATOM     35  CA  TYR     6      58.259  41.609  44.841  1.00  0.00     0.164 C 
BRANCH  35  36
ATOM     36  C   TYR     6      57.459  41.112  46.065  1.00  0.00     0.251 C 
ATOM     37  O   TYR     6      56.280  41.422  46.219  1.00  0.00    -0.271 OA
ATOM     38  N   ALA     7      58.062  40.173  46.792  1.00  0.00    -0.336 N 
ATOM     39  H   ALA     7      58.956  39.818  46.522  1.00 99.99     0.164 HD
BRANCH  38  40
ATOM     40  CA  ALA     7      57.541  39.587  48.042  1.00  0.00     0.168 C 
ATOM     41  CB  ALA     7      57.671  38.063  47.948  1.00  0.00     0.036 C 
BRANCH  40  42
ATOM     42  C   ALA     7      58.373  40.092  49.232  1.00  0.00     0.206 C 
ATOM     43  OXT ALA     7      58.246  41.308  49.503  1.00 99.99    -0.646 OA
ATOM     44  O   ALA     7      58.999  39.249  49.909  1.00 99.99    -0.646 OA
ENDBRANCH  40  42
ENDBRANCH  38  40
ENDBRANCH  35  36
BRANCH  35  45
ATOM     45  CB  TYR     6      57.936  40.661  43.680  1.00  0.00     0.056 C 
BRANCH  45  46
ATOM     46  CG  TYR     6      58.675  40.824  42.347  1.00  0.00    -0.044 A 
ATOM     47  CD2 TYR     6      58.385  41.976  41.632  1.00  0.00     0.011 A 
ATOM     48  CE2 TYR     6      59.106  42.309  40.495  1.00  0.00     0.037 A 
ATOM     49  CZ  TYR     6      60.138  41.480  40.073  1.00  0.00     0.065 A 
ATOM     50  CE1 TYR     6      60.421  40.311  40.769  1.00  0.00     0.037 A 
ATOM     51  CD1 TYR     6      59.694  39.982  41.909  1.00  0.00     0.011 A 
BRANCH  49  52
ATOM     52  OH  TYR     6      60.927  41.860  39.034  1.00  0.00    -0.361 OA
ATOM     53  HH  TYR     6      61.873  41.616  39.229  1.00 99.99     0.217 HD
ENDBRANCH  49  52
ENDBRANCH  45  46
ENDBRANCH  35  45
ENDBRANCH  32  35
ENDBRANCH  29  31
ENDBRANCH  26  29
ENDBRANCH  20  25
ENDBRANCH  18  20
ENDBRANCH  15  16
BRANCH  15  54
ATOM     54  CB  LYS     3      61.849  40.309  52.428  1.00  0.00     0.032 C 
BRANCH  54  55
ATOM     55  CG  LYS     3      63.029  40.578  53.372  1.00  0.00     0.004 C 
BRANCH  55  56
ATOM     56  CD  LYS     3      64.260  39.730  53.040  1.00  0.00     0.032 C 
BRANCH  56  57
ATOM     57  CE  LYS     3      64.205  39.284  51.576  1.00  0.00     0.206 C 
BRANCH  57  58
ATOM     58  NZ  LYS     3      64.892  40.224  50.677  1.00  0.00    -0.064 N 
ATOM     59  HZ1 LYS     3      64.682  41.161  50.958  1.00 99.99     0.275 HD
ATOM     60  HZ3 LYS     3      64.579  40.084  49.737  1.00 99.99     0.275 HD
ATOM     61  HZ2 LYS     3      65.880  40.080  50.728  1.00 99.99     0.275 HD
ENDBRANCH  57  58
ENDBRANCH  56  57
ENDBRANCH  55  56
ENDBRANCH  54  55
ENDBRANCH  15  54
ENDBRANCH  12  15
ENDBRANCH  10  11
BRANCH  10  62
ATOM     62  CB  LYS     2      56.980  40.562  53.669  1.00  0.00     0.032 C 
BRANCH  62  63
ATOM     63  CG  LYS     2      55.599  40.626  54.337  1.00  0.00     0.004 C 
BRANCH  63  64
ATOM     64  CD  LYS     2      55.614  40.115  55.782  1.00  0.00     0.032 C 
BRANCH  64  65
ATOM     65  CE  LYS     2      57.050  39.873  56.264  1.00  0.00     0.206 C 
BRANCH  65  66
ATOM     66  NZ  LYS     2      57.502  40.891  57.228  1.00  0.00    -0.064 N 
ATOM     67  HZ1 LYS     2      57.305  40.579  58.158  1.00 99.99     0.275 HD
ATOM     68  HZ2 LYS     2      58.486  41.040  57.135  1.00 99.99     0.275 HD
ATOM     69  HZ3 LYS     2      57.015  41.750  57.068  1.00 99.99     0.275 HD
ENDBRANCH  65  66
ENDBRANCH  64  65
ENDBRANCH  63  64
ENDBRANCH  62  63
ENDBRANCH  10  62
ENDBRANCH   7  10
ENDBRANCH   5   6
BRANCH   5  70
ATOM     70  CB  LYS     1      53.753  41.763  49.857  1.00  0.00     0.040 C 
BRANCH  70  71
ATOM     71  CG  LYS     1      54.142  40.702  48.811  1.00  0.00     0.004 C 
BRANCH  71  72
ATOM     72  CD  LYS     1      54.055  39.255  49.322  1.00  0.00     0.032 C 
BRANCH  72  73
ATOM     73  CE  LYS     1      54.797  39.102  50.659  1.00  0.00     0.206 C 
BRANCH  73  74
ATOM     74  NZ  LYS     1      53.976  38.502  51.727  1.00  0.00    -0.064 N 
ATOM     75  HZ3 LYS     1      53.093  38.208  51.361  1.00 99.99     0.275 HD
ATOM     76  HZ2 LYS     1      53.831  39.163  52.463  1.00 99.99     0.275 HD
ATOM     77  HZ1 LYS     1      54.452  37.704  52.101  1.00 99.99     0.275 HD
ENDBRANCH  73  74
ENDBRANCH  72  73
ENDBRANCH  71  72
ENDBRANCH  70  71
ENDBRANCH   5  70
ENDBRANCH   1   5
TORSDOF 34
ENDMDL
