MODEL 1
REMARK VINA RESULT:      -4.7      0.000      0.000
REMARK WARNING: 32 MAX_TORS EXCEEDED!!!
REMARK  42 active torsions:
REMARK  status: ('A' for Active; 'I' for Inactive)
REMARK    1  A    between atoms: N_1  and  CA_2 
REMARK    2  A    between atoms: CA_2  and  C_3 
REMARK    3  A    between atoms: CA_2  and  CB_5 
REMARK       I    between atoms: C_3  and  N_12 
REMARK    4  A    between atoms: CB_5  and  CG1_6 
REMARK    5  A    between atoms: N_12  and  CA_13 
REMARK    6  A    between atoms: CA_13  and  CB_16 
REMARK    7  A    between atoms: CA_13  and  C_14 
REMARK       I    between atoms: C_14  and  N_29 
REMARK    8  A    between atoms: CB_16  and  CG_17 
REMARK    9  A    between atoms: CG_17  and  CD_18 
REMARK   10  A    between atoms: CD_18  and  NE_19 
REMARK       I    between atoms: NE_19  and  CZ_20 
REMARK       I    between atoms: CZ_20  and  NH2_22 
REMARK       I    between atoms: CZ_20  and  NH1_21 
REMARK   11  A    between atoms: N_29  and  CA_30 
REMARK   12  A    between atoms: CA_30  and  C_31 
REMARK   13  A    between atoms: CA_30  and  CB_33 
REMARK       I    between atoms: C_31  and  N_38 
REMARK   14  A    between atoms: CB_33  and  CG1_34 
REMARK   15  A    between atoms: N_38  and  CA_39 
REMARK   16  A    between atoms: CA_39  and  CB_42 
REMARK   17  A    between atoms: CA_39  and  C_40 
REMARK       I    between atoms: C_40  and  N_51 
REMARK   18  A    between atoms: CB_42  and  CG_43 
REMARK   19  A    between atoms: CG_43  and  CD_44 
REMARK   20  A    between atoms: CD_44  and  CE_45 
REMARK   21  A    between atoms: CE_45  and  NZ_46 
REMARK   22  A    between atoms: N_51  and  CA_52 
REMARK   23  A    between atoms: CA_52  and  C_53 
REMARK   24  A    between atoms: CA_52  and  CB_55 
REMARK       I    between atoms: C_53  and  N_60 
REMARK   25  A    between atoms: CB_55  and  CG1_56 
REMARK   26  A    between atoms: N_60  and  CA_61 
REMARK   27  A    between atoms: CA_61  and  CB_64 
REMARK   28  A    between atoms: CA_61  and  C_62 
REMARK       I    between atoms: C_62  and  N_77 
REMARK   29  A    between atoms: CB_64  and  CG_65 
REMARK   30  A    between atoms: CG_65  and  CD_66 
REMARK   31  A    between atoms: CD_66  and  NE_67 
REMARK       I    between atoms: NE_67  and  CZ_68 
REMARK       I    between atoms: CZ_68  and  NH1_69 
REMARK   32  A    between atoms: N_77  and  CA_78 
REMARK   33  A    between atoms: CA_78  and  CB_81 
REMARK   34  A    between atoms: CA_78  and  C_79 
REMARK       I    between atoms: C_79  and  N_86 
REMARK   35  A    between atoms: CB_81  and  CG1_82 
REMARK   36  A    between atoms: N_86  and  CA_87 
REMARK   37  A    between atoms: CA_87  and  C_88 
REMARK   38  A    between atoms: CA_87  and  CB_90 
REMARK   39  A    between atoms: CB_90  and  CG_91 
REMARK   40  A    between atoms: CG_91  and  CD_92 
REMARK   41  A    between atoms: CD_92  and  CE_93 
REMARK   42  A    between atoms: CE_93  and  NZ_94 
ROOT
ATOM      1  N   ILE     1      66.319  46.840  48.713  1.00  0.00    -0.058 N 
ATOM      2  H1  ILE     1      66.423  47.116  49.669  1.00 99.99     0.276 HD
ATOM      3  H2  ILE     1      67.175  46.974  48.237  1.00 99.99     0.276 HD
ATOM      4  H3  ILE     1      65.682  47.460  48.269  1.00 99.99     0.276 HD
ENDROOT
BRANCH   1   5
ATOM      5  CA  ILE     1      65.864  45.424  48.692  1.00  0.00     0.255 C 
BRANCH   5   6
ATOM      6  C   ILE     1      66.402  44.669  47.443  1.00  0.00     0.259 C 
ATOM      7  O   ILE     1      66.488  45.275  46.376  1.00  0.00    -0.271 OA
ATOM      8  N   ARG     2      66.690  43.362  47.534  1.00  0.00    -0.338 N 
ATOM      9  H   ARG     2      66.663  42.870  48.400  1.00 99.99     0.164 HD
BRANCH   8  10
ATOM     10  CA  ARG     2      67.189  42.559  46.385  1.00  0.00     0.159 C 
BRANCH  10  11
ATOM     11  CB  ARG     2      68.297  41.596  46.823  1.00  0.00     0.034 C 
BRANCH  11  12
ATOM     12  CG  ARG     2      69.632  41.830  46.108  1.00  0.00     0.027 C 
BRANCH  12  13
ATOM     13  CD  ARG     2      69.573  43.137  45.315  1.00  0.00     0.116 C 
BRANCH  13  14
ATOM     14  NE  ARG     2      69.262  42.876  43.898  1.00  0.00    -0.212 N 
ATOM     15  HE  ARG     2      68.356  42.495  43.722  1.00 99.99     0.178 HD
ATOM     16  CZ  ARG     2      70.084  43.059  42.859  1.00  0.00     0.666 C 
ATOM     17  NH2 ARG     2      69.651  42.850  41.621  1.00  0.00    -0.235 N 
ATOM     18  NH1 ARG     2      71.328  43.492  43.010  1.00  0.00    -0.235 N 
ATOM     19 1HH2 ARG     2      70.275  42.995  40.856  1.00 99.99     0.174 HD
ATOM     20 2HH2 ARG     2      68.716  42.553  41.452  1.00 99.99     0.174 HD
ATOM     21 2HH1 ARG     2      71.669  43.677  43.928  1.00 99.99     0.174 HD
ATOM     22 1HH1 ARG     2      71.919  43.623  42.215  1.00 99.99     0.174 HD
ENDBRANCH  13  14
ENDBRANCH  12  13
ENDBRANCH  11  12
ENDBRANCH  10  11
BRANCH  10  23
ATOM     23  C   ARG     2      66.116  41.765  45.606  1.00  0.00     0.251 C 
ATOM     24  O   ARG     2      66.398  41.226  44.538  1.00  0.00    -0.271 OA
ATOM     25  N   ILE     3      64.949  41.579  46.223  1.00  0.00    -0.338 N 
ATOM     26  H   ILE     3      64.832  41.829  47.180  1.00 99.99     0.164 HD
BRANCH  25  27
ATOM     27  CA  ILE     3      63.753  40.964  45.600  1.00  0.00     0.159 C 
BRANCH  27  28
ATOM     28  C   ILE     3      62.668  42.046  45.395  1.00  0.00     0.251 C 
ATOM     29  N   LYS     4      61.429  41.597  45.169  1.00  0.00    -0.338 N 
ATOM     30  H   LYS     4      61.251  40.617  45.152  1.00 99.99     0.164 HD
ATOM     31  O   ILE     3      62.963  43.232  45.533  1.00  0.00    -0.271 OA
BRANCH  29  32
ATOM     32  CA  LYS     4      60.225  42.417  44.873  1.00  0.00     0.159 C 
BRANCH  32  33
ATOM     33  CB  LYS     4      60.278  42.852  43.398  1.00  0.00     0.032 C 
BRANCH  33  34
ATOM     34  CG  LYS     4      60.430  41.703  42.397  1.00  0.00     0.004 C 
BRANCH  34  35
ATOM     35  CD  LYS     4      60.010  42.166  40.999  1.00  0.00     0.032 C 
BRANCH  35  36
ATOM     36  CE  LYS     4      58.492  42.107  40.811  1.00  0.00     0.206 C 
BRANCH  36  37
ATOM     37  NZ  LYS     4      57.908  40.967  41.537  1.00  0.00    -0.064 N 
ATOM     38  HZ1 LYS     4      56.951  40.857  41.270  1.00 99.99     0.275 HD
ATOM     39  HZ2 LYS     4      58.413  40.133  41.315  1.00 99.99     0.275 HD
ATOM     40  HZ3 LYS     4      57.960  41.133  42.522  1.00 99.99     0.275 HD
ENDBRANCH  36  37
ENDBRANCH  35  36
ENDBRANCH  34  35
ENDBRANCH  33  34
ENDBRANCH  32  33
BRANCH  32  41
ATOM     41  C   LYS     4      58.849  41.781  45.198  1.00  0.00     0.251 C 
ATOM     42  N   ILE     5      58.688  41.399  46.461  1.00  0.00    -0.338 N 
ATOM     43  H   ILE     5      59.453  41.476  47.110  1.00 99.99     0.164 HD
ATOM     44  O   LYS     4      57.956  41.665  44.359  1.00  0.00    -0.271 OA
BRANCH  42  45
ATOM     45  CA  ILE     5      57.458  40.807  47.027  1.00  0.00     0.159 C 
BRANCH  45  46
ATOM     46  C   ILE     5      56.548  41.897  47.611  1.00  0.00     0.251 C 
ATOM     47  N   ARG     6      55.871  41.545  48.699  1.00  0.00    -0.338 N 
ATOM     48  H   ARG     6      55.941  40.635  49.101  1.00 99.99     0.164 HD
ATOM     49  O   ILE     5      56.542  43.037  47.146  1.00  0.00    -0.271 OA
BRANCH  47  50
ATOM     50  CA  ARG     6      55.022  42.492  49.445  1.00  0.00     0.159 C 
BRANCH  50  51
ATOM     51  CB  ARG     6      53.647  41.888  49.748  1.00  0.00     0.034 C 
BRANCH  51  52
ATOM     52  CG  ARG     6      53.622  40.370  49.564  1.00  0.00     0.027 C 
BRANCH  52  53
ATOM     53  CD  ARG     6      53.290  39.681  50.887  1.00  0.00     0.116 C 
BRANCH  53  54
ATOM     54  NE  ARG     6      51.912  39.156  50.837  1.00  0.00    -0.212 N 
ATOM     55  CZ  ARG     6      50.990  39.239  51.800  1.00  0.00     0.666 C 
ATOM     56  NH1 ARG     6      51.226  39.851  52.954  1.00  0.00    -0.235 N 
ATOM     57  NH2 ARG     6      49.797  38.693  51.617  1.00  0.00    -0.235 N 
ATOM     58 2HH1 ARG     6      52.119  40.265  53.107  1.00 99.99     0.174 HD
ATOM     59 1HH1 ARG     6      50.516  39.899  53.655  1.00 99.99     0.174 HD
ATOM     60 2HH2 ARG     6      49.582  38.219  50.768  1.00 99.99     0.174 HD
ATOM     61 1HH2 ARG     6      49.112  38.759  52.341  1.00 99.99     0.174 HD
ATOM     62  HE  ARG     6      51.670  38.694  49.988  1.00 99.99     0.178 HD
ENDBRANCH  53  54
ENDBRANCH  52  53
ENDBRANCH  51  52
ENDBRANCH  50  51
BRANCH  50  63
ATOM     63  C   ARG     6      55.718  42.839  50.765  1.00  0.00     0.251 C 
ATOM     64  N   ILE     7      56.489  41.876  51.250  1.00  0.00    -0.338 N 
ATOM     65  H   ILE     7      56.659  41.030  50.742  1.00 99.99     0.164 HD
ATOM     66  O   ARG     6      55.476  43.890  51.355  1.00  0.00    -0.271 OA
BRANCH  64  67
ATOM     67  CA  ILE     7      57.216  41.997  52.527  1.00  0.00     0.159 C 
BRANCH  67  68
ATOM     68  CB  ILE     7      57.155  40.671  53.324  1.00  0.00     0.029 C 
ATOM     69  CG2 ILE     7      56.926  39.501  52.357  1.00  0.00     0.002 C 
BRANCH  68  70
ATOM     70  CG1 ILE     7      58.378  40.471  54.246  1.00  0.00     0.002 C 
ATOM     71  CD  ILE     7      59.003  39.072  54.187  1.00  0.00     0.000 C 
ENDBRANCH  68  70
ENDBRANCH  67  68
BRANCH  67  72
ATOM     72  C   ILE     7      58.661  42.474  52.304  1.00  0.00     0.251 C 
ATOM     73  O   ILE     7      59.217  43.225  53.103  1.00  0.00    -0.271 OA
ATOM     74  N   LYS     8      59.276  41.930  51.261  1.00  0.00    -0.336 N 
ATOM     75  H   LYS     8      58.893  41.144  50.780  1.00 99.99     0.164 HD
BRANCH  74  76
ATOM     76  CA  LYS     8      60.532  42.461  50.688  1.00  0.00     0.168 C 
BRANCH  76  77
ATOM     77  C   LYS     8      60.285  42.608  49.176  1.00  0.00     0.206 C 
ATOM     78  O   LYS     8      61.181  42.236  48.389  1.00 99.99    -0.646 OA
ATOM     79  OXT LYS     8      59.271  43.283  48.880  1.00 99.99    -0.646 OA
ENDBRANCH  76  77
BRANCH  76  80
ATOM     80  CB  LYS     8      61.679  41.455  50.837  1.00  0.00     0.033 C 
BRANCH  80  81
ATOM     81  CG  LYS     8      61.697  40.643  52.134  1.00  0.00     0.004 C 
BRANCH  81  82
ATOM     82  CD  LYS     8      63.143  40.590  52.627  1.00  0.00     0.032 C 
BRANCH  82  83
ATOM     83  CE  LYS     8      63.276  40.944  54.108  1.00  0.00     0.206 C 
BRANCH  83  84
ATOM     84  NZ  LYS     8      61.941  41.161  54.680  1.00  0.00    -0.064 N 
ATOM     85  HZ3 LYS     8      61.256  41.116  53.953  1.00 99.99     0.275 HD
ATOM     86  HZ1 LYS     8      61.748  40.457  55.364  1.00 99.99     0.275 HD
ATOM     87  HZ2 LYS     8      61.906  42.063  55.112  1.00 99.99     0.275 HD
ENDBRANCH  83  84
ENDBRANCH  82  83
ENDBRANCH  81  82
ENDBRANCH  80  81
ENDBRANCH  76  80
ENDBRANCH  74  76
ENDBRANCH  67  72
ENDBRANCH  64  67
ENDBRANCH  50  63
ENDBRANCH  47  50
ENDBRANCH  45  46
BRANCH  45  88
ATOM     88  CB  ILE     5      57.767  39.742  48.107  1.00  0.00     0.029 C 
ATOM     89  CG2 ILE     5      56.877  38.511  47.885  1.00  0.00     0.002 C 
BRANCH  88  90
ATOM     90  CG1 ILE     5      59.265  39.395  48.194  1.00  0.00     0.002 C 
ATOM     91  CD  ILE     5      59.680  38.729  49.512  1.00  0.00     0.000 C 
ENDBRANCH  88  90
ENDBRANCH  45  88
ENDBRANCH  42  45
ENDBRANCH  32  41
ENDBRANCH  29  32
ENDBRANCH  27  28
BRANCH  27  92
ATOM     92  CB  ILE     3      63.271  39.798  46.505  1.00  0.00     0.029 C 
ATOM     93  CG2 ILE     3      63.733  38.429  45.982  1.00  0.00     0.002 C 
BRANCH  92  94
ATOM     94  CG1 ILE     3      63.755  40.015  47.950  1.00  0.00     0.002 C 
ATOM     95  CD  ILE     3      63.445  38.859  48.915  1.00  0.00     0.000 C 
ENDBRANCH  92  94
ENDBRANCH  27  92
ENDBRANCH  25  27
ENDBRANCH  10  23
ENDBRANCH   8  10
ENDBRANCH   5   6
BRANCH   5  96
ATOM     96  CB  ILE     1      64.327  45.301  48.827  1.00  0.00     0.037 C 
ATOM     97  CG2 ILE     1      63.964  43.987  49.536  1.00  0.00     0.002 C 
BRANCH  96  98
ATOM     98  CG1 ILE     1      63.687  46.539  49.487  1.00  0.00     0.002 C 
ATOM     99  CD  ILE     1      62.957  46.234  50.801  1.00  0.00     0.000 C 
ENDBRANCH  96  98
ENDBRANCH   5  96
ENDBRANCH   1   5
TORSDOF 42
ENDMDL
MODEL 2
REMARK VINA RESULT:      -4.6      2.266      5.995
REMARK WARNING: 32 MAX_TORS EXCEEDED!!!
REMARK  42 active torsions:
REMARK  status: ('A' for Active; 'I' for Inactive)
REMARK    1  A    between atoms: N_1  and  CA_2 
REMARK    2  A    between atoms: CA_2  and  C_3 
REMARK    3  A    between atoms: CA_2  and  CB_5 
REMARK       I    between atoms: C_3  and  N_12 
REMARK    4  A    between atoms: CB_5  and  CG1_6 
REMARK    5  A    between atoms: N_12  and  CA_13 
REMARK    6  A    between atoms: CA_13  and  CB_16 
REMARK    7  A    between atoms: CA_13  and  C_14 
REMARK       I    between atoms: C_14  and  N_29 
REMARK    8  A    between atoms: CB_16  and  CG_17 
REMARK    9  A    between atoms: CG_17  and  CD_18 
REMARK   10  A    between atoms: CD_18  and  NE_19 
REMARK       I    between atoms: NE_19  and  CZ_20 
REMARK       I    between atoms: CZ_20  and  NH2_22 
REMARK       I    between atoms: CZ_20  and  NH1_21 
REMARK   11  A    between atoms: N_29  and  CA_30 
REMARK   12  A    between atoms: CA_30  and  C_31 
REMARK   13  A    between atoms: CA_30  and  CB_33 
REMARK       I    between atoms: C_31  and  N_38 
REMARK   14  A    between atoms: CB_33  and  CG1_34 
REMARK   15  A    between atoms: N_38  and  CA_39 
REMARK   16  A    between atoms: CA_39  and  CB_42 
REMARK   17  A    between atoms: CA_39  and  C_40 
REMARK       I    between atoms: C_40  and  N_51 
REMARK   18  A    between atoms: CB_42  and  CG_43 
REMARK   19  A    between atoms: CG_43  and  CD_44 
REMARK   20  A    between atoms: CD_44  and  CE_45 
REMARK   21  A    between atoms: CE_45  and  NZ_46 
REMARK   22  A    between atoms: N_51  and  CA_52 
REMARK   23  A    between atoms: CA_52  and  C_53 
REMARK   24  A    between atoms: CA_52  and  CB_55 
REMARK       I    between atoms: C_53  and  N_60 
REMARK   25  A    between atoms: CB_55  and  CG1_56 
REMARK   26  A    between atoms: N_60  and  CA_61 
REMARK   27  A    between atoms: CA_61  and  CB_64 
REMARK   28  A    between atoms: CA_61  and  C_62 
REMARK       I    between atoms: C_62  and  N_77 
REMARK   29  A    between atoms: CB_64  and  CG_65 
REMARK   30  A    between atoms: CG_65  and  CD_66 
REMARK   31  A    between atoms: CD_66  and  NE_67 
REMARK       I    between atoms: NE_67  and  CZ_68 
REMARK       I    between atoms: CZ_68  and  NH1_69 
REMARK   32  A    between atoms: N_77  and  CA_78 
REMARK   33  A    between atoms: CA_78  and  CB_81 
REMARK   34  A    between atoms: CA_78  and  C_79 
REMARK       I    between atoms: C_79  and  N_86 
REMARK   35  A    between atoms: CB_81  and  CG1_82 
REMARK   36  A    between atoms: N_86  and  CA_87 
REMARK   37  A    between atoms: CA_87  and  C_88 
REMARK   38  A    between atoms: CA_87  and  CB_90 
REMARK   39  A    between atoms: CB_90  and  CG_91 
REMARK   40  A    between atoms: CG_91  and  CD_92 
REMARK   41  A    between atoms: CD_92  and  CE_93 
REMARK   42  A    between atoms: CE_93  and  NZ_94 
ROOT
ATOM      1  N   ILE     1      66.467  43.966  49.272  1.00  0.00    -0.058 N 
ATOM      2  H1  ILE     1      67.158  44.671  49.435  1.00 99.99     0.276 HD
ATOM      3  H2  ILE     1      66.272  43.495  50.119  1.00 99.99     0.276 HD
ATOM      4  H3  ILE     1      66.853  43.271  48.678  1.00 99.99     0.276 HD
ENDROOT
BRANCH   1   5
ATOM      5  CA  ILE     1      65.266  44.626  48.693  1.00  0.00     0.255 C 
BRANCH   5   6
ATOM      6  C   ILE     1      65.048  44.216  47.208  1.00  0.00     0.259 C 
ATOM      7  O   ILE     1      65.679  44.805  46.332  1.00  0.00    -0.271 OA
ATOM      8  N   ARG     2      64.130  43.285  46.907  1.00  0.00    -0.338 N 
ATOM      9  H   ARG     2      63.643  42.771  47.610  1.00 99.99     0.164 HD
BRANCH   8  10
ATOM     10  CA  ARG     2      63.843  42.848  45.515  1.00  0.00     0.159 C 
BRANCH  10  11
ATOM     11  CB  ARG     2      64.399  41.446  45.249  1.00  0.00     0.034 C 
BRANCH  11  12
ATOM     12  CG  ARG     2      65.929  41.370  45.309  1.00  0.00     0.027 C 
BRANCH  12  13
ATOM     13  CD  ARG     2      66.533  42.135  44.130  1.00  0.00     0.116 C 
BRANCH  13  14
ATOM     14  NE  ARG     2      67.939  41.747  43.920  1.00  0.00    -0.212 N 
ATOM     15  HE  ARG     2      68.077  40.860  43.482  1.00 99.99     0.178 HD
ATOM     16  CZ  ARG     2      69.018  42.441  44.295  1.00  0.00     0.666 C 
ATOM     17  NH2 ARG     2      70.234  42.009  43.979  1.00  0.00    -0.235 N 
ATOM     18  NH1 ARG     2      68.926  43.594  44.946  1.00  0.00    -0.235 N 
ATOM     19 1HH2 ARG     2      71.029  42.541  44.263  1.00 99.99     0.174 HD
ATOM     20 2HH2 ARG     2      70.356  41.165  43.465  1.00 99.99     0.174 HD
ATOM     21 2HH1 ARG     2      68.024  43.949  45.175  1.00 99.99     0.174 HD
ATOM     22 1HH1 ARG     2      69.749  44.093  45.212  1.00 99.99     0.174 HD
ENDBRANCH  13  14
ENDBRANCH  12  13
ENDBRANCH  11  12
ENDBRANCH  10  11
BRANCH  10  23
ATOM     23  C   ARG     2      62.357  42.884  45.094  1.00  0.00     0.251 C 
ATOM     24  O   ARG     2      61.486  43.151  45.920  1.00  0.00    -0.271 OA
ATOM     25  N   ILE     3      62.105  42.764  43.791  1.00  0.00    -0.338 N 
ATOM     26  H   ILE     3      62.844  42.782  43.124  1.00 99.99     0.164 HD
BRANCH  25  27
ATOM     27  CA  ILE     3      60.751  42.641  43.201  1.00  0.00     0.159 C 
BRANCH  27  28
ATOM     28  C   ILE     3      60.166  41.251  43.543  1.00  0.00     0.251 C 
ATOM     29  N   LYS     4      61.028  40.363  44.051  1.00  0.00    -0.338 N 
ATOM     30  H   LYS     4      61.979  40.622  44.198  1.00 99.99     0.164 HD
ATOM     31  O   ILE     3      58.959  41.057  43.420  1.00  0.00    -0.271 OA
BRANCH  29  32
ATOM     32  CA  LYS     4      60.744  38.947  44.399  1.00  0.00     0.159 C 
BRANCH  32  33
ATOM     33  CB  LYS     4      61.368  38.042  43.321  1.00  0.00     0.032 C 
BRANCH  33  34
ATOM     34  CG  LYS     4      62.676  38.570  42.722  1.00  0.00     0.004 C 
BRANCH  34  35
ATOM     35  CD  LYS     4      62.815  38.098  41.272  1.00  0.00     0.032 C 
BRANCH  35  36
ATOM     36  CE  LYS     4      64.172  37.436  41.016  1.00  0.00     0.206 C 
BRANCH  36  37
ATOM     37  NZ  LYS     4      64.700  36.810  42.239  1.00  0.00    -0.064 N 
ATOM     38  HZ1 LYS     4      64.785  35.824  42.098  1.00 99.99     0.275 HD
ATOM     39  HZ2 LYS     4      65.598  37.193  42.453  1.00 99.99     0.275 HD
ATOM     40  HZ3 LYS     4      64.076  36.983  43.001  1.00 99.99     0.275 HD
ENDBRANCH  36  37
ENDBRANCH  35  36
ENDBRANCH  34  35
ENDBRANCH  33  34
ENDBRANCH  32  33
BRANCH  32  41
ATOM     41  C   LYS     4      61.172  38.474  45.812  1.00  0.00     0.251 C 
ATOM     42  N   ILE     5      61.782  39.393  46.553  1.00  0.00    -0.338 N 
ATOM     43  H   ILE     5      61.989  40.296  46.162  1.00 99.99     0.164 HD
ATOM     44  O   LYS     4      60.937  37.342  46.233  1.00  0.00    -0.271 OA
BRANCH  42  45
ATOM     45  CA  ILE     5      62.247  39.202  47.943  1.00  0.00     0.159 C 
BRANCH  45  46
ATOM     46  C   ILE     5      61.492  40.134  48.902  1.00  0.00     0.251 C 
ATOM     47  N   ARG     6      61.480  41.416  48.552  1.00  0.00    -0.338 N 
ATOM     48  H   ARG     6      61.936  41.750  47.730  1.00 99.99     0.164 HD
ATOM     49  O   ILE     5      60.868  39.687  49.864  1.00  0.00    -0.271 OA
BRANCH  47  50
ATOM     50  CA  ARG     6      60.726  42.436  49.305  1.00  0.00     0.159 C 
BRANCH  50  51
ATOM     51  CB  ARG     6      61.496  43.758  49.375  1.00  0.00     0.034 C 
BRANCH  51  52
ATOM     52  CG  ARG     6      62.290  43.904  50.674  1.00  0.00     0.027 C 
BRANCH  52  53
ATOM     53  CD  ARG     6      61.777  42.919  51.723  1.00  0.00     0.116 C 
BRANCH  53  54
ATOM     54  NE  ARG     6      62.916  42.188  52.311  1.00  0.00    -0.212 N 
ATOM     55  CZ  ARG     6      62.920  40.921  52.733  1.00  0.00     0.666 C 
ATOM     56  NH1 ARG     6      61.848  40.142  52.643  1.00  0.00    -0.235 N 
ATOM     57  NH2 ARG     6      64.019  40.408  53.266  1.00  0.00    -0.235 N 
ATOM     58 2HH1 ARG     6      61.014  40.514  52.246  1.00 99.99     0.174 HD
ATOM     59 1HH1 ARG     6      61.882  39.197  52.966  1.00 99.99     0.174 HD
ATOM     60 2HH2 ARG     6      64.843  40.961  53.357  1.00 99.99     0.174 HD
ATOM     61 1HH2 ARG     6      64.016  39.460  53.578  1.00 99.99     0.174 HD
ATOM     62  HE  ARG     6      63.755  42.717  52.394  1.00 99.99     0.178 HD
ENDBRANCH  53  54
ENDBRANCH  52  53
ENDBRANCH  51  52
ENDBRANCH  50  51
BRANCH  50  63
ATOM     63  C   ARG     6      59.386  42.674  48.600  1.00  0.00     0.251 C 
ATOM     64  N   ILE     7      58.552  41.645  48.641  1.00  0.00    -0.338 N 
ATOM     65  H   ILE     7      58.761  40.817  49.165  1.00 99.99     0.164 HD
ATOM     66  O   ARG     6      59.175  43.706  47.967  1.00  0.00    -0.271 OA
BRANCH  64  67
ATOM     67  CA  ILE     7      57.228  41.658  47.992  1.00  0.00     0.159 C 
BRANCH  67  68
ATOM     68  CB  ILE     7      57.053  40.426  47.071  1.00  0.00     0.029 C 
ATOM     69  CG2 ILE     7      56.583  39.226  47.904  1.00  0.00     0.002 C 
BRANCH  68  70
ATOM     70  CG1 ILE     7      56.151  40.715  45.851  1.00  0.00     0.002 C 
ATOM     71  CD  ILE     7      54.817  39.958  45.848  1.00  0.00     0.000 C 
ENDBRANCH  68  70
ENDBRANCH  67  68
BRANCH  67  72
ATOM     72  C   ILE     7      56.099  41.772  49.030  1.00  0.00     0.251 C 
ATOM     73  O   ILE     7      54.961  42.105  48.703  1.00  0.00    -0.271 OA
ATOM     74  N   LYS     8      56.423  41.381  50.256  1.00  0.00    -0.336 N 
ATOM     75  H   LYS     8      57.269  40.884  50.440  1.00 99.99     0.164 HD
BRANCH  74  76
ATOM     76  CA  LYS     8      55.609  41.689  51.452  1.00  0.00     0.168 C 
BRANCH  76  77
ATOM     77  C   LYS     8      56.098  43.054  51.966  1.00  0.00     0.206 C 
ATOM     78  O   LYS     8      55.359  44.048  51.806  1.00 99.99    -0.646 OA
ATOM     79  OXT LYS     8      57.299  43.072  52.324  1.00 99.99    -0.646 OA
ENDBRANCH  76  77
BRANCH  76  80
ATOM     80  CB  LYS     8      55.878  40.686  52.580  1.00  0.00     0.033 C 
BRANCH  80  81
ATOM     81  CG  LYS     8      55.115  40.921  53.885  1.00  0.00     0.004 C 
BRANCH  81  82
ATOM     82  CD  LYS     8      55.909  40.259  55.011  1.00  0.00     0.032 C 
BRANCH  82  83
ATOM     83  CE  LYS     8      57.340  39.913  54.602  1.00  0.00     0.206 C 
BRANCH  83  84
ATOM     84  NZ  LYS     8      58.277  40.791  55.316  1.00  0.00    -0.064 N 
ATOM     85  HZ3 LYS     8      59.151  40.319  55.433  1.00 99.99     0.275 HD
ATOM     86  HZ1 LYS     8      58.420  41.631  54.792  1.00 99.99     0.275 HD
ATOM     87  HZ2 LYS     8      57.901  41.018  56.215  1.00 99.99     0.275 HD
ENDBRANCH  83  84
ENDBRANCH  82  83
ENDBRANCH  81  82
ENDBRANCH  80  81
ENDBRANCH  76  80
ENDBRANCH  74  76
ENDBRANCH  67  72
ENDBRANCH  64  67
ENDBRANCH  50  63
ENDBRANCH  47  50
ENDBRANCH  45  46
BRANCH  45  88
ATOM     88  CB  ILE     5      63.773  39.423  48.083  1.00  0.00     0.029 C 
ATOM     89  CG2 ILE     5      64.163  39.397  49.567  1.00  0.00     0.002 C 
BRANCH  88  90
ATOM     90  CG1 ILE     5      64.600  38.448  47.224  1.00  0.00     0.002 C 
ATOM     91  CD  ILE     5      65.982  38.117  47.803  1.00  0.00     0.000 C 
ENDBRANCH  88  90
ENDBRANCH  45  88
ENDBRANCH  42  45
ENDBRANCH  32  41
ENDBRANCH  29  32
ENDBRANCH  27  28
BRANCH  27  92
ATOM     92  CB  ILE     3      60.856  42.884  41.670  1.00  0.00     0.029 C 
ATOM     93  CG2 ILE     3      61.404  41.657  40.925  1.00  0.00     0.002 C 
BRANCH  92  94
ATOM     94  CG1 ILE     3      59.484  43.291  41.103  1.00  0.00     0.002 C 
ATOM     95  CD  ILE     3      59.537  44.310  39.953  1.00  0.00     0.000 C 
ENDBRANCH  92  94
ENDBRANCH  27  92
ENDBRANCH  25  27
ENDBRANCH  10  23
ENDBRANCH   8  10
ENDBRANCH   5   6
BRANCH   5  96
ATOM     96  CB  ILE     1      65.301  46.163  48.871  1.00  0.00     0.037 C 
ATOM     97  CG2 ILE     1      63.916  46.676  49.295  1.00  0.00     0.002 C 
BRANCH  96  98
ATOM     98  CG1 ILE     1      66.430  46.627  49.813  1.00  0.00     0.002 C 
ATOM     99  CD  ILE     1      67.248  47.805  49.268  1.00  0.00     0.000 C 
ENDBRANCH  96  98
ENDBRANCH   5  96
ENDBRANCH   1   5
TORSDOF 42
ENDMDL
MODEL 3
REMARK VINA RESULT:      -4.6      2.656      9.516
REMARK WARNING: 32 MAX_TORS EXCEEDED!!!
REMARK  42 active torsions:
REMARK  status: ('A' for Active; 'I' for Inactive)
REMARK    1  A    between atoms: N_1  and  CA_2 
REMARK    2  A    between atoms: CA_2  and  C_3 
REMARK    3  A    between atoms: CA_2  and  CB_5 
REMARK       I    between atoms: C_3  and  N_12 
REMARK    4  A    between atoms: CB_5  and  CG1_6 
REMARK    5  A    between atoms: N_12  and  CA_13 
REMARK    6  A    between atoms: CA_13  and  CB_16 
REMARK    7  A    between atoms: CA_13  and  C_14 
REMARK       I    between atoms: C_14  and  N_29 
REMARK    8  A    between atoms: CB_16  and  CG_17 
REMARK    9  A    between atoms: CG_17  and  CD_18 
REMARK   10  A    between atoms: CD_18  and  NE_19 
REMARK       I    between atoms: NE_19  and  CZ_20 
REMARK       I    between atoms: CZ_20  and  NH2_22 
REMARK       I    between atoms: CZ_20  and  NH1_21 
REMARK   11  A    between atoms: N_29  and  CA_30 
REMARK   12  A    between atoms: CA_30  and  C_31 
REMARK   13  A    between atoms: CA_30  and  CB_33 
REMARK       I    between atoms: C_31  and  N_38 
REMARK   14  A    between atoms: CB_33  and  CG1_34 
REMARK   15  A    between atoms: N_38  and  CA_39 
REMARK   16  A    between atoms: CA_39  and  CB_42 
REMARK   17  A    between atoms: CA_39  and  C_40 
REMARK       I    between atoms: C_40  and  N_51 
REMARK   18  A    between atoms: CB_42  and  CG_43 
REMARK   19  A    between atoms: CG_43  and  CD_44 
REMARK   20  A    between atoms: CD_44  and  CE_45 
REMARK   21  A    between atoms: CE_45  and  NZ_46 
REMARK   22  A    between atoms: N_51  and  CA_52 
REMARK   23  A    between atoms: CA_52  and  C_53 
REMARK   24  A    between atoms: CA_52  and  CB_55 
REMARK       I    between atoms: C_53  and  N_60 
REMARK   25  A    between atoms: CB_55  and  CG1_56 
REMARK   26  A    between atoms: N_60  and  CA_61 
REMARK   27  A    between atoms: CA_61  and  CB_64 
REMARK   28  A    between atoms: CA_61  and  C_62 
REMARK       I    between atoms: C_62  and  N_77 
REMARK   29  A    between atoms: CB_64  and  CG_65 
REMARK   30  A    between atoms: CG_65  and  CD_66 
REMARK   31  A    between atoms: CD_66  and  NE_67 
REMARK       I    between atoms: NE_67  and  CZ_68 
REMARK       I    between atoms: CZ_68  and  NH1_69 
REMARK   32  A    between atoms: N_77  and  CA_78 
REMARK   33  A    between atoms: CA_78  and  CB_81 
REMARK   34  A    between atoms: CA_78  and  C_79 
REMARK       I    between atoms: C_79  and  N_86 
REMARK   35  A    between atoms: CB_81  and  CG1_82 
REMARK   36  A    between atoms: N_86  and  CA_87 
REMARK   37  A    between atoms: CA_87  and  C_88 
REMARK   38  A    between atoms: CA_87  and  CB_90 
REMARK   39  A    between atoms: CB_90  and  CG_91 
REMARK   40  A    between atoms: CG_91  and  CD_92 
REMARK   41  A    between atoms: CD_92  and  CE_93 
REMARK   42  A    between atoms: CE_93  and  NZ_94 
ROOT
ATOM      1  N   ILE     1      54.022  38.303  42.245  1.00  0.00    -0.058 N 
ATOM      2  H1  ILE     1      53.335  38.972  42.533  1.00 99.99     0.276 HD
ATOM      3  H2  ILE     1      54.651  38.730  41.613  1.00 99.99     0.276 HD
ATOM      4  H3  ILE     1      53.574  37.592  41.717  1.00 99.99     0.276 HD
ENDROOT
BRANCH   1   5
ATOM      5  CA  ILE     1      54.697  37.785  43.466  1.00  0.00     0.255 C 
BRANCH   5   6
ATOM      6  C   ILE     1      56.239  37.977  43.392  1.00  0.00     0.259 C 
ATOM      7  O   ILE     1      56.963  36.986  43.470  1.00  0.00    -0.271 OA
ATOM      8  N   ARG     2      56.749  39.216  43.318  1.00  0.00    -0.338 N 
ATOM      9  H   ARG     2      56.173  40.022  43.212  1.00 99.99     0.164 HD
BRANCH   8  10
ATOM     10  CA  ARG     2      58.210  39.490  43.265  1.00  0.00     0.159 C 
BRANCH  10  11
ATOM     11  CB  ARG     2      58.543  40.498  42.160  1.00  0.00     0.034 C 
BRANCH  11  12
ATOM     12  CG  ARG     2      60.042  40.607  41.861  1.00  0.00     0.027 C 
BRANCH  12  13
ATOM     13  CD  ARG     2      60.253  41.311  40.519  1.00  0.00     0.116 C 
BRANCH  13  14
ATOM     14  NE  ARG     2      59.906  42.740  40.617  1.00  0.00    -0.212 N 
ATOM     15  HE  ARG     2      60.163  43.185  41.474  1.00 99.99     0.178 HD
ATOM     16  CZ  ARG     2      59.254  43.463  39.701  1.00  0.00     0.666 C 
ATOM     17  NH2 ARG     2      59.068  44.765  39.885  1.00  0.00    -0.235 N 
ATOM     18  NH1 ARG     2      58.814  42.934  38.566  1.00  0.00    -0.235 N 
ATOM     19 1HH2 ARG     2      58.583  45.292  39.190  1.00 99.99     0.174 HD
ATOM     20 2HH2 ARG     2      59.406  45.216  40.707  1.00 99.99     0.174 HD
ATOM     21 2HH1 ARG     2      58.961  41.965  38.395  1.00 99.99     0.174 HD
ATOM     22 1HH1 ARG     2      58.332  43.499  37.897  1.00 99.99     0.174 HD
ENDBRANCH  13  14
ENDBRANCH  12  13
ENDBRANCH  11  12
ENDBRANCH  10  11
BRANCH  10  23
ATOM     23  C   ARG     2      58.850  39.968  44.587  1.00  0.00     0.251 C 
ATOM     24  O   ARG     2      59.824  39.379  45.052  1.00  0.00    -0.271 OA
ATOM     25  N   ILE     3      58.390  41.113  45.091  1.00  0.00    -0.338 N 
ATOM     26  H   ILE     3      57.762  41.684  44.570  1.00 99.99     0.164 HD
BRANCH  25  27
ATOM     27  CA  ILE     3      58.775  41.671  46.409  1.00  0.00     0.159 C 
BRANCH  27  28
ATOM     28  C   ILE     3      57.511  42.178  47.141  1.00  0.00     0.251 C 
ATOM     29  N   LYS     4      57.369  41.777  48.409  1.00  0.00    -0.338 N 
ATOM     30  H   LYS     4      58.062  41.196  48.827  1.00 99.99     0.164 HD
ATOM     31  O   ILE     3      56.763  42.972  46.574  1.00  0.00    -0.271 OA
BRANCH  29  32
ATOM     32  CA  LYS     4      56.220  42.061  49.308  1.00  0.00     0.159 C 
BRANCH  32  33
ATOM     33  CB  LYS     4      55.219  40.895  49.210  1.00  0.00     0.032 C 
BRANCH  33  34
ATOM     34  CG  LYS     4      53.977  41.043  50.093  1.00  0.00     0.004 C 
BRANCH  34  35
ATOM     35  CD  LYS     4      53.526  39.669  50.596  1.00  0.00     0.032 C 
BRANCH  35  36
ATOM     36  CE  LYS     4      52.239  39.205  49.909  1.00  0.00     0.206 C 
BRANCH  36  37
ATOM     37  NZ  LYS     4      51.567  40.321  49.224  1.00  0.00    -0.064 N 
ATOM     38  HZ1 LYS     4      51.483  40.112  48.250  1.00 99.99     0.275 HD
ATOM     39  HZ2 LYS     4      50.656  40.455  49.613  1.00 99.99     0.275 HD
ATOM     40  HZ3 LYS     4      52.103  41.157  49.338  1.00 99.99     0.275 HD
ENDBRANCH  36  37
ENDBRANCH  35  36
ENDBRANCH  34  35
ENDBRANCH  33  34
ENDBRANCH  32  33
BRANCH  32  41
ATOM     41  C   LYS     4      56.553  42.362  50.792  1.00  0.00     0.251 C 
ATOM     42  N   ILE     5      57.259  41.424  51.413  1.00  0.00    -0.338 N 
ATOM     43  H   ILE     5      57.484  40.567  50.937  1.00 99.99     0.164 HD
ATOM     44  O   LYS     4      56.217  43.407  51.349  1.00  0.00    -0.271 OA
BRANCH  42  45
ATOM     45  CA  ILE     5      57.735  41.494  52.811  1.00  0.00     0.159 C 
BRANCH  45  46
ATOM     46  C   ILE     5      58.958  42.415  52.924  1.00  0.00     0.251 C 
ATOM     47  N   ARG     6      60.047  41.989  52.293  1.00  0.00    -0.338 N 
ATOM     48  H   ARG     6      60.071  41.128  51.790  1.00 99.99     0.164 HD
ATOM     49  O   ILE     5      58.880  43.511  53.480  1.00  0.00    -0.271 OA
BRANCH  47  50
ATOM     50  CA  ARG     6      61.283  42.790  52.218  1.00  0.00     0.159 C 
BRANCH  50  51
ATOM     51  CB  ARG     6      62.476  42.027  52.805  1.00  0.00     0.034 C 
BRANCH  51  52
ATOM     52  CG  ARG     6      62.092  40.632  53.299  1.00  0.00     0.027 C 
BRANCH  52  53
ATOM     53  CD  ARG     6      63.346  39.794  53.547  1.00  0.00     0.116 C 
BRANCH  53  54
ATOM     54  NE  ARG     6      64.384  40.158  52.563  1.00  0.00    -0.212 N 
ATOM     55  CZ  ARG     6      64.892  39.373  51.610  1.00  0.00     0.666 C 
ATOM     56  NH1 ARG     6      64.480  38.125  51.429  1.00  0.00    -0.235 N 
ATOM     57  NH2 ARG     6      65.844  39.837  50.813  1.00  0.00    -0.235 N 
ATOM     58 2HH1 ARG     6      63.766  37.761  52.020  1.00 99.99     0.174 HD
ATOM     59 1HH1 ARG     6      64.878  37.561  50.705  1.00 99.99     0.174 HD
ATOM     60 2HH2 ARG     6      66.185  40.767  50.921  1.00 99.99     0.174 HD
ATOM     61 1HH2 ARG     6      66.219  39.245  50.102  1.00 99.99     0.174 HD
ATOM     62  HE  ARG     6      64.726  41.091  52.641  1.00 99.99     0.178 HD
ENDBRANCH  53  54
ENDBRANCH  52  53
ENDBRANCH  51  52
ENDBRANCH  50  51
BRANCH  50  63
ATOM     63  C   ARG     6      61.570  43.112  50.748  1.00  0.00     0.251 C 
ATOM     64  N   ILE     7      62.752  43.669  50.527  1.00  0.00    -0.338 N 
ATOM     65  H   ILE     7      63.426  43.787  51.260  1.00 99.99     0.164 HD
ATOM     66  O   ARG     6      60.712  42.953  49.883  1.00  0.00    -0.271 OA
BRANCH  64  67
ATOM     67  CA  ILE     7      63.204  44.089  49.188  1.00  0.00     0.159 C 
BRANCH  67  68
ATOM     68  CB  ILE     7      63.725  45.546  49.213  1.00  0.00     0.029 C 
ATOM     69  CG2 ILE     7      62.568  46.500  49.538  1.00  0.00     0.002 C 
BRANCH  68  70
ATOM     70  CG1 ILE     7      64.947  45.728  50.141  1.00  0.00     0.002 C 
ATOM     71  CD  ILE     7      66.114  46.504  49.518  1.00  0.00     0.000 C 
ENDBRANCH  68  70
ENDBRANCH  67  68
BRANCH  67  72
ATOM     72  C   ILE     7      64.245  43.110  48.618  1.00  0.00     0.251 C 
ATOM     73  O   ILE     7      64.504  42.050  49.185  1.00  0.00    -0.271 OA
ATOM     74  N   LYS     8      64.744  43.449  47.436  1.00  0.00    -0.336 N 
ATOM     75  H   LYS     8      64.338  44.176  46.886  1.00 99.99     0.164 HD
BRANCH  74  76
ATOM     76  CA  LYS     8      65.958  42.833  46.856  1.00  0.00     0.168 C 
BRANCH  76  77
ATOM     77  C   LYS     8      67.150  43.641  47.399  1.00  0.00     0.206 C 
ATOM     78  O   LYS     8      67.587  43.362  48.536  1.00 99.99    -0.646 OA
ATOM     79  OXT LYS     8      67.445  44.650  46.717  1.00 99.99    -0.646 OA
ENDBRANCH  76  77
BRANCH  76  80
ATOM     80  CB  LYS     8      65.989  42.997  45.332  1.00  0.00     0.033 C 
BRANCH  80  81
ATOM     81  CG  LYS     8      64.743  42.525  44.579  1.00  0.00     0.004 C 
BRANCH  81  82
ATOM     82  CD  LYS     8      64.823  41.003  44.459  1.00  0.00     0.032 C 
BRANCH  82  83
ATOM     83  CE  LYS     8      63.733  40.288  45.257  1.00  0.00     0.206 C 
BRANCH  83  84
ATOM     84  NZ  LYS     8      62.783  39.659  44.330  1.00  0.00    -0.064 N 
ATOM     85  HZ3 LYS     8      63.017  39.912  43.392  1.00 99.99     0.275 HD
ATOM     86  HZ1 LYS     8      62.825  38.664  44.427  1.00 99.99     0.275 HD
ATOM     87  HZ2 LYS     8      61.857  39.975  44.537  1.00 99.99     0.275 HD
ENDBRANCH  83  84
ENDBRANCH  82  83
ENDBRANCH  81  82
ENDBRANCH  80  81
ENDBRANCH  76  80
ENDBRANCH  74  76
ENDBRANCH  67  72
ENDBRANCH  64  67
ENDBRANCH  50  63
ENDBRANCH  47  50
ENDBRANCH  45  46
BRANCH  45  88
ATOM     88  CB  ILE     5      58.071  40.096  53.383  1.00  0.00     0.029 C 
ATOM     89  CG2 ILE     5      58.085  40.156  54.916  1.00  0.00     0.002 C 
BRANCH  88  90
ATOM     90  CG1 ILE     5      57.156  38.987  52.831  1.00  0.00     0.002 C 
ATOM     91  CD  ILE     5      57.781  38.162  51.697  1.00  0.00     0.000 C 
ENDBRANCH  88  90
ENDBRANCH  45  88
ENDBRANCH  42  45
ENDBRANCH  32  41
ENDBRANCH  29  32
ENDBRANCH  27  28
BRANCH  27  92
ATOM     92  CB  ILE     3      59.824  42.793  46.181  1.00  0.00     0.029 C 
ATOM     93  CG2 ILE     3      61.242  42.350  46.574  1.00  0.00     0.002 C 
BRANCH  92  94
ATOM     94  CG1 ILE     3      59.792  43.258  44.714  1.00  0.00     0.002 C 
ATOM     95  CD  ILE     3      61.133  43.149  43.972  1.00  0.00     0.000 C 
ENDBRANCH  92  94
ENDBRANCH  27  92
ENDBRANCH  25  27
ENDBRANCH  10  23
ENDBRANCH   8  10
ENDBRANCH   5   6
BRANCH   5  96
ATOM     96  CB  ILE     1      54.308  36.319  43.772  1.00  0.00     0.037 C 
ATOM     97  CG2 ILE     1      53.847  36.190  45.232  1.00  0.00     0.002 C 
BRANCH  96  98
ATOM     98  CG1 ILE     1      53.287  35.753  42.765  1.00  0.00     0.002 C 
ATOM     99  CD  ILE     1      53.607  34.330  42.290  1.00  0.00     0.000 C 
ENDBRANCH  96  98
ENDBRANCH   5  96
ENDBRANCH   1   5
TORSDOF 42
ENDMDL
MODEL 4
REMARK VINA RESULT:      -4.6      1.972      3.070
REMARK WARNING: 32 MAX_TORS EXCEEDED!!!
REMARK  42 active torsions:
REMARK  status: ('A' for Active; 'I' for Inactive)
REMARK    1  A    between atoms: N_1  and  CA_2 
REMARK    2  A    between atoms: CA_2  and  C_3 
REMARK    3  A    between atoms: CA_2  and  CB_5 
REMARK       I    between atoms: C_3  and  N_12 
REMARK    4  A    between atoms: CB_5  and  CG1_6 
REMARK    5  A    between atoms: N_12  and  CA_13 
REMARK    6  A    between atoms: CA_13  and  CB_16 
REMARK    7  A    between atoms: CA_13  and  C_14 
REMARK       I    between atoms: C_14  and  N_29 
REMARK    8  A    between atoms: CB_16  and  CG_17 
REMARK    9  A    between atoms: CG_17  and  CD_18 
REMARK   10  A    between atoms: CD_18  and  NE_19 
REMARK       I    between atoms: NE_19  and  CZ_20 
REMARK       I    between atoms: CZ_20  and  NH2_22 
REMARK       I    between atoms: CZ_20  and  NH1_21 
REMARK   11  A    between atoms: N_29  and  CA_30 
REMARK   12  A    between atoms: CA_30  and  C_31 
REMARK   13  A    between atoms: CA_30  and  CB_33 
REMARK       I    between atoms: C_31  and  N_38 
REMARK   14  A    between atoms: CB_33  and  CG1_34 
REMARK   15  A    between atoms: N_38  and  CA_39 
REMARK   16  A    between atoms: CA_39  and  CB_42 
REMARK   17  A    between atoms: CA_39  and  C_40 
REMARK       I    between atoms: C_40  and  N_51 
REMARK   18  A    between atoms: CB_42  and  CG_43 
REMARK   19  A    between atoms: CG_43  and  CD_44 
REMARK   20  A    between atoms: CD_44  and  CE_45 
REMARK   21  A    between atoms: CE_45  and  NZ_46 
REMARK   22  A    between atoms: N_51  and  CA_52 
REMARK   23  A    between atoms: CA_52  and  C_53 
REMARK   24  A    between atoms: CA_52  and  CB_55 
REMARK       I    between atoms: C_53  and  N_60 
REMARK   25  A    between atoms: CB_55  and  CG1_56 
REMARK   26  A    between atoms: N_60  and  CA_61 
REMARK   27  A    between atoms: CA_61  and  CB_64 
REMARK   28  A    between atoms: CA_61  and  C_62 
REMARK       I    between atoms: C_62  and  N_77 
REMARK   29  A    between atoms: CB_64  and  CG_65 
REMARK   30  A    between atoms: CG_65  and  CD_66 
REMARK   31  A    between atoms: CD_66  and  NE_67 
REMARK       I    between atoms: NE_67  and  CZ_68 
REMARK       I    between atoms: CZ_68  and  NH1_69 
REMARK   32  A    between atoms: N_77  and  CA_78 
REMARK   33  A    between atoms: CA_78  and  CB_81 
REMARK   34  A    between atoms: CA_78  and  C_79 
REMARK       I    between atoms: C_79  and  N_86 
REMARK   35  A    between atoms: CB_81  and  CG1_82 
REMARK   36  A    between atoms: N_86  and  CA_87 
REMARK   37  A    between atoms: CA_87  and  C_88 
REMARK   38  A    between atoms: CA_87  and  CB_90 
REMARK   39  A    between atoms: CB_90  and  CG_91 
REMARK   40  A    between atoms: CG_91  and  CD_92 
REMARK   41  A    between atoms: CD_92  and  CE_93 
REMARK   42  A    between atoms: CE_93  and  NZ_94 
ROOT
ATOM      1  N   ILE     1      66.411  46.054  49.752  1.00  0.00    -0.058 N 
ATOM      2  H1  ILE     1      66.126  46.047  50.712  1.00 99.99     0.276 HD
ATOM      3  H2  ILE     1      67.392  45.943  49.699  1.00 99.99     0.276 HD
ATOM      4  H3  ILE     1      66.236  46.955  49.374  1.00 99.99     0.276 HD
ENDROOT
BRANCH   1   5
ATOM      5  CA  ILE     1      65.671  44.972  49.047  1.00  0.00     0.255 C 
BRANCH   5   6
ATOM      6  C   ILE     1      66.376  44.569  47.720  1.00  0.00     0.259 C 
ATOM      7  O   ILE     1      67.040  45.413  47.122  1.00  0.00    -0.271 OA
ATOM      8  N   ARG     2      66.187  43.339  47.218  1.00  0.00    -0.338 N 
ATOM      9  H   ARG     2      65.685  42.634  47.713  1.00 99.99     0.164 HD
BRANCH   8  10
ATOM     10  CA  ARG     2      66.805  42.878  45.946  1.00  0.00     0.159 C 
BRANCH  10  11
ATOM     11  CB  ARG     2      67.887  41.826  46.206  1.00  0.00     0.034 C 
BRANCH  11  12
ATOM     12  CG  ARG     2      67.353  40.390  46.239  1.00  0.00     0.027 C 
BRANCH  12  13
ATOM     13  CD  ARG     2      67.022  39.992  47.679  1.00  0.00     0.116 C 
BRANCH  13  14
ATOM     14  NE  ARG     2      65.568  39.830  47.856  1.00  0.00    -0.212 N 
ATOM     15  HE  ARG     2      65.110  39.283  47.157  1.00 99.99     0.178 HD
ATOM     16  CZ  ARG     2      64.821  40.375  48.822  1.00  0.00     0.666 C 
ATOM     17  NH2 ARG     2      63.527  40.089  48.907  1.00  0.00    -0.235 N 
ATOM     18  NH1 ARG     2      65.337  41.172  49.748  1.00  0.00    -0.235 N 
ATOM     19 1HH2 ARG     2      62.984  40.500  49.636  1.00 99.99     0.174 HD
ATOM     20 2HH2 ARG     2      63.098  39.472  48.254  1.00 99.99     0.174 HD
ATOM     21 2HH1 ARG     2      66.309  41.384  49.718  1.00 99.99     0.174 HD
ATOM     22 1HH1 ARG     2      64.755  41.563  50.461  1.00 99.99     0.174 HD
ENDBRANCH  13  14
ENDBRANCH  12  13
ENDBRANCH  11  12
ENDBRANCH  10  11
BRANCH  10  23
ATOM     23  C   ARG     2      65.823  42.333  44.884  1.00  0.00     0.251 C 
ATOM     24  O   ARG     2      66.214  42.099  43.742  1.00  0.00    -0.271 OA
ATOM     25  N   ILE     3      64.607  42.000  45.314  1.00  0.00    -0.338 N 
ATOM     26  H   ILE     3      64.395  41.984  46.287  1.00 99.99     0.164 HD
BRANCH  25  27
ATOM     27  CA  ILE     3      63.485  41.587  44.437  1.00  0.00     0.159 C 
BRANCH  27  28
ATOM     28  C   ILE     3      62.184  42.276  44.909  1.00  0.00     0.251 C 
ATOM     29  N   LYS     4      61.208  42.369  44.000  1.00  0.00    -0.338 N 
ATOM     30  H   LYS     4      61.342  41.995  43.086  1.00 99.99     0.164 HD
ATOM     31  O   ILE     3      62.074  42.616  46.085  1.00  0.00    -0.271 OA
BRANCH  29  32
ATOM     32  CA  LYS     4      59.893  43.040  44.172  1.00  0.00     0.159 C 
BRANCH  32  33
ATOM     33  CB  LYS     4      59.448  43.602  42.810  1.00  0.00     0.032 C 
BRANCH  33  34
ATOM     34  CG  LYS     4      60.186  43.016  41.603  1.00  0.00     0.004 C 
BRANCH  34  35
ATOM     35  CD  LYS     4      59.198  42.743  40.466  1.00  0.00     0.032 C 
BRANCH  35  36
ATOM     36  CE  LYS     4      58.653  41.313  40.516  1.00  0.00     0.206 C 
BRANCH  36  37
ATOM     37  NZ  LYS     4      57.312  41.273  41.122  1.00  0.00    -0.064 N 
ATOM     38  HZ1 LYS     4      57.030  42.201  41.367  1.00 99.99     0.275 HD
ATOM     39  HZ2 LYS     4      56.659  40.891  40.468  1.00 99.99     0.275 HD
ATOM     40  HZ3 LYS     4      57.331  40.704  41.944  1.00 99.99     0.275 HD
ENDBRANCH  36  37
ENDBRANCH  35  36
ENDBRANCH  34  35
ENDBRANCH  33  34
ENDBRANCH  32  33
BRANCH  32  41
ATOM     41  C   LYS     4      58.756  42.198  44.805  1.00  0.00     0.251 C 
ATOM     42  N   ILE     5      58.830  42.050  46.123  1.00  0.00    -0.338 N 
ATOM     43  H   ILE     5      59.619  42.419  46.626  1.00 99.99     0.164 HD
ATOM     44  O   LYS     4      57.832  41.725  44.143  1.00  0.00    -0.271 OA
BRANCH  42  45
ATOM     45  CA  ILE     5      57.849  41.329  46.961  1.00  0.00     0.159 C 
BRANCH  45  46
ATOM     46  C   ILE     5      56.958  42.318  47.728  1.00  0.00     0.251 C 
ATOM     47  N   ARG     6      56.683  41.975  48.982  1.00  0.00    -0.338 N 
ATOM     48  H   ARG     6      57.023  41.132  49.393  1.00 99.99     0.164 HD
ATOM     49  O   ILE     5      56.620  43.390  47.227  1.00  0.00    -0.271 OA
BRANCH  47  50
ATOM     50  CA  ARG     6      55.920  42.849  49.893  1.00  0.00     0.159 C 
BRANCH  50  51
ATOM     51  CB  ARG     6      54.413  42.610  49.760  1.00  0.00     0.034 C 
BRANCH  51  52
ATOM     52  CG  ARG     6      54.038  41.136  49.914  1.00  0.00     0.027 C 
BRANCH  52  53
ATOM     53  CD  ARG     6      53.449  40.600  48.610  1.00  0.00     0.116 C 
BRANCH  53  54
ATOM     54  NE  ARG     6      52.609  39.421  48.896  1.00  0.00    -0.212 N 
ATOM     55  CZ  ARG     6      52.937  38.141  48.707  1.00  0.00     0.666 C 
ATOM     56  NH1 ARG     6      54.123  37.777  48.235  1.00  0.00    -0.235 N 
ATOM     57  NH2 ARG     6      52.061  37.188  48.990  1.00  0.00    -0.235 N 
ATOM     58 2HH1 ARG     6      54.792  38.482  48.017  1.00 99.99     0.174 HD
ATOM     59 1HH1 ARG     6      54.342  36.811  48.106  1.00 99.99     0.174 HD
ATOM     60 2HH2 ARG     6      51.157  37.419  49.340  1.00 99.99     0.174 HD
ATOM     61 1HH2 ARG     6      52.313  36.232  48.847  1.00 99.99     0.174 HD
ATOM     62  HE  ARG     6      51.707  39.629  49.266  1.00 99.99     0.178 HD
ENDBRANCH  53  54
ENDBRANCH  52  53
ENDBRANCH  51  52
ENDBRANCH  50  51
BRANCH  50  63
ATOM     63  C   ARG     6      56.349  42.549  51.333  1.00  0.00     0.251 C 
ATOM     64  N   ILE     7      57.309  41.642  51.444  1.00  0.00    -0.338 N 
ATOM     65  H   ILE     7      57.765  41.255  50.640  1.00 99.99     0.164 HD
ATOM     66  O   ARG     6      55.758  43.046  52.290  1.00  0.00    -0.271 OA
BRANCH  64  67
ATOM     67  CA  ILE     7      57.836  41.186  52.743  1.00  0.00     0.159 C 
BRANCH  67  68
ATOM     68  CB  ILE     7      57.981  39.645  52.769  1.00  0.00     0.029 C 
ATOM     69  CG2 ILE     7      56.972  39.050  53.761  1.00  0.00     0.002 C 
BRANCH  68  70
ATOM     70  CG1 ILE     7      57.901  39.013  51.362  1.00  0.00     0.002 C 
ATOM     71  CD  ILE     7      59.069  38.083  51.010  1.00  0.00     0.000 C 
ENDBRANCH  68  70
ENDBRANCH  67  68
BRANCH  67  72
ATOM     72  C   ILE     7      59.154  41.898  53.093  1.00  0.00     0.251 C 
ATOM     73  O   ILE     7      59.252  43.123  53.038  1.00  0.00    -0.271 OA
ATOM     74  N   LYS     8      60.114  41.107  53.553  1.00  0.00    -0.336 N 
ATOM     75  H   LYS     8      59.929  40.163  53.823  1.00 99.99     0.164 HD
BRANCH  74  76
ATOM     76  CA  LYS     8      61.531  41.518  53.655  1.00  0.00     0.168 C 
BRANCH  76  77
ATOM     77  C   LYS     8      62.262  40.836  52.486  1.00  0.00     0.206 C 
ATOM     78  O   LYS     8      62.930  41.548  51.707  1.00 99.99    -0.646 OA
ATOM     79  OXT LYS     8      61.949  39.635  52.310  1.00 99.99    -0.646 OA
ENDBRANCH  76  77
BRANCH  76  80
ATOM     80  CB  LYS     8      62.175  40.977  54.937  1.00  0.00     0.033 C 
BRANCH  80  81
ATOM     81  CG  LYS     8      63.610  41.433  55.212  1.00  0.00     0.004 C 
BRANCH  81  82
ATOM     82  CD  LYS     8      64.483  40.182  55.304  1.00  0.00     0.032 C 
BRANCH  82  83
ATOM     83  CE  LYS     8      65.678  40.224  54.353  1.00  0.00     0.206 C 
BRANCH  83  84
ATOM     84  NZ  LYS     8      65.255  39.780  53.018  1.00  0.00    -0.064 N 
ATOM     85  HZ3 LYS     8      65.794  38.983  52.746  1.00 99.99     0.275 HD
ATOM     86  HZ1 LYS     8      64.285  39.537  53.035  1.00 99.99     0.275 HD
ATOM     87  HZ2 LYS     8      65.403  40.519  52.360  1.00 99.99     0.275 HD
ENDBRANCH  83  84
ENDBRANCH  82  83
ENDBRANCH  81  82
ENDBRANCH  80  81
ENDBRANCH  76  80
ENDBRANCH  74  76
ENDBRANCH  67  72
ENDBRANCH  64  67
ENDBRANCH  50  63
ENDBRANCH  47  50
ENDBRANCH  45  46
BRANCH  45  88
ATOM     88  CB  ILE     5      58.532  40.355  47.952  1.00  0.00     0.029 C 
ATOM     89  CG2 ILE     5      58.327  38.911  47.476  1.00  0.00     0.002 C 
BRANCH  88  90
ATOM     90  CG1 ILE     5      60.010  40.703  48.210  1.00  0.00     0.002 C 
ATOM     91  CD  ILE     5      60.239  41.608  49.427  1.00  0.00     0.000 C 
ENDBRANCH  88  90
ENDBRANCH  45  88
ENDBRANCH  42  45
ENDBRANCH  32  41
ENDBRANCH  29  32
ENDBRANCH  27  28
BRANCH  27  92
ATOM     92  CB  ILE     3      63.384  40.038  44.463  1.00  0.00     0.029 C 
ATOM     93  CG2 ILE     3      62.012  39.554  44.958  1.00  0.00     0.002 C 
BRANCH  92  94
ATOM     94  CG1 ILE     3      63.686  39.464  43.066  1.00  0.00     0.002 C 
ATOM     95  CD  ILE     3      65.078  38.830  42.915  1.00  0.00     0.000 C 
ENDBRANCH  92  94
ENDBRANCH  27  92
ENDBRANCH  25  27
ENDBRANCH  10  23
ENDBRANCH   8  10
ENDBRANCH   5   6
BRANCH   5  96
ATOM     96  CB  ILE     1      64.182  45.328  48.828  1.00  0.00     0.037 C 
ATOM     97  CG2 ILE     1      63.301  44.097  49.091  1.00  0.00     0.002 C 
BRANCH  96  98
ATOM     98  CG1 ILE     1      63.741  46.566  49.635  1.00  0.00     0.002 C 
ATOM     99  CD  ILE     1      62.922  46.232  50.887  1.00  0.00     0.000 C 
ENDBRANCH  96  98
ENDBRANCH   5  96
ENDBRANCH   1   5
TORSDOF 42
ENDMDL
MODEL 5
REMARK VINA RESULT:      -4.6      2.822      9.378
REMARK WARNING: 32 MAX_TORS EXCEEDED!!!
REMARK  42 active torsions:
REMARK  status: ('A' for Active; 'I' for Inactive)
REMARK    1  A    between atoms: N_1  and  CA_2 
REMARK    2  A    between atoms: CA_2  and  C_3 
REMARK    3  A    between atoms: CA_2  and  CB_5 
REMARK       I    between atoms: C_3  and  N_12 
REMARK    4  A    between atoms: CB_5  and  CG1_6 
REMARK    5  A    between atoms: N_12  and  CA_13 
REMARK    6  A    between atoms: CA_13  and  CB_16 
REMARK    7  A    between atoms: CA_13  and  C_14 
REMARK       I    between atoms: C_14  and  N_29 
REMARK    8  A    between atoms: CB_16  and  CG_17 
REMARK    9  A    between atoms: CG_17  and  CD_18 
REMARK   10  A    between atoms: CD_18  and  NE_19 
REMARK       I    between atoms: NE_19  and  CZ_20 
REMARK       I    between atoms: CZ_20  and  NH2_22 
REMARK       I    between atoms: CZ_20  and  NH1_21 
REMARK   11  A    between atoms: N_29  and  CA_30 
REMARK   12  A    between atoms: CA_30  and  C_31 
REMARK   13  A    between atoms: CA_30  and  CB_33 
REMARK       I    between atoms: C_31  and  N_38 
REMARK   14  A    between atoms: CB_33  and  CG1_34 
REMARK   15  A    between atoms: N_38  and  CA_39 
REMARK   16  A    between atoms: CA_39  and  CB_42 
REMARK   17  A    between atoms: CA_39  and  C_40 
REMARK       I    between atoms: C_40  and  N_51 
REMARK   18  A    between atoms: CB_42  and  CG_43 
REMARK   19  A    between atoms: CG_43  and  CD_44 
REMARK   20  A    between atoms: CD_44  and  CE_45 
REMARK   21  A    between atoms: CE_45  and  NZ_46 
REMARK   22  A    between atoms: N_51  and  CA_52 
REMARK   23  A    between atoms: CA_52  and  C_53 
REMARK   24  A    between atoms: CA_52  and  CB_55 
REMARK       I    between atoms: C_53  and  N_60 
REMARK   25  A    between atoms: CB_55  and  CG1_56 
REMARK   26  A    between atoms: N_60  and  CA_61 
REMARK   27  A    between atoms: CA_61  and  CB_64 
REMARK   28  A    between atoms: CA_61  and  C_62 
REMARK       I    between atoms: C_62  and  N_77 
REMARK   29  A    between atoms: CB_64  and  CG_65 
REMARK   30  A    between atoms: CG_65  and  CD_66 
REMARK   31  A    between atoms: CD_66  and  NE_67 
REMARK       I    between atoms: NE_67  and  CZ_68 
REMARK       I    between atoms: CZ_68  and  NH1_69 
REMARK   32  A    between atoms: N_77  and  CA_78 
REMARK   33  A    between atoms: CA_78  and  CB_81 
REMARK   34  A    between atoms: CA_78  and  C_79 
REMARK       I    between atoms: C_79  and  N_86 
REMARK   35  A    between atoms: CB_81  and  CG1_82 
REMARK   36  A    between atoms: N_86  and  CA_87 
REMARK   37  A    between atoms: CA_87  and  C_88 
REMARK   38  A    between atoms: CA_87  and  CB_90 
REMARK   39  A    between atoms: CB_90  and  CG_91 
REMARK   40  A    between atoms: CG_91  and  CD_92 
REMARK   41  A    between atoms: CD_92  and  CE_93 
REMARK   42  A    between atoms: CE_93  and  NZ_94 
ROOT
ATOM      1  N   ILE     1      66.176  45.108  46.502  1.00  0.00    -0.058 N 
ATOM      2  H1  ILE     1      67.064  45.115  46.964  1.00 99.99     0.276 HD
ATOM      3  H2  ILE     1      66.295  45.373  45.557  1.00 99.99     0.276 HD
ATOM      4  H3  ILE     1      65.606  45.819  46.896  1.00 99.99     0.276 HD
ENDROOT
BRANCH   1   5
ATOM      5  CA  ILE     1      65.595  43.746  46.648  1.00  0.00     0.255 C 
BRANCH   5   6
ATOM      6  C   ILE     1      65.110  43.485  48.103  1.00  0.00     0.259 C 
ATOM      7  O   ILE     1      65.947  43.241  48.971  1.00  0.00    -0.271 OA
ATOM      8  N   ARG     2      63.795  43.458  48.368  1.00  0.00    -0.338 N 
ATOM      9  H   ARG     2      63.110  43.694  47.683  1.00 99.99     0.164 HD
BRANCH   8  10
ATOM     10  CA  ARG     2      63.246  43.195  49.725  1.00  0.00     0.159 C 
BRANCH  10  11
ATOM     11  CB  ARG     2      62.162  44.214  50.090  1.00  0.00     0.034 C 
BRANCH  11  12
ATOM     12  CG  ARG     2      62.490  45.644  49.648  1.00  0.00     0.027 C 
BRANCH  12  13
ATOM     13  CD  ARG     2      63.663  46.184  50.470  1.00  0.00     0.116 C 
BRANCH  13  14
ATOM     14  NE  ARG     2      64.534  47.036  49.640  1.00  0.00    -0.212 N 
ATOM     15  HE  ARG     2      64.062  47.717  49.083  1.00 99.99     0.178 HD
ATOM     16  CZ  ARG     2      65.864  46.948  49.539  1.00  0.00     0.666 C 
ATOM     17  NH2 ARG     2      66.538  47.828  48.807  1.00  0.00    -0.235 N 
ATOM     18  NH1 ARG     2      66.563  46.026  50.189  1.00  0.00    -0.235 N 
ATOM     19 1HH2 ARG     2      67.531  47.752  48.744  1.00 99.99     0.174 HD
ATOM     20 2HH2 ARG     2      66.063  48.558  48.323  1.00 99.99     0.174 HD
ATOM     21 2HH1 ARG     2      66.082  45.369  50.762  1.00 99.99     0.174 HD
ATOM     22 1HH1 ARG     2      67.557  45.986  50.096  1.00 99.99     0.174 HD
ENDBRANCH  13  14
ENDBRANCH  12  13
ENDBRANCH  11  12
ENDBRANCH  10  11
BRANCH  10  23
ATOM     23  C   ARG     2      62.692  41.771  49.959  1.00  0.00     0.251 C 
ATOM     24  O   ARG     2      63.446  40.860  50.293  1.00  0.00    -0.271 OA
ATOM     25  N   ILE     3      61.366  41.637  49.926  1.00  0.00    -0.338 N 
ATOM     26  H   ILE     3      60.772  42.435  49.882  1.00 99.99     0.164 HD
BRANCH  25  27
ATOM     27  CA  ILE     3      60.647  40.342  49.993  1.00  0.00     0.159 C 
BRANCH  27  28
ATOM     28  C   ILE     3      59.865  40.121  48.678  1.00  0.00     0.251 C 
ATOM     29  N   LYS     4      58.537  40.252  48.759  1.00  0.00    -0.338 N 
ATOM     30  H   LYS     4      58.112  40.491  49.628  1.00 99.99     0.164 HD
ATOM     31  O   ILE     3      60.483  39.927  47.633  1.00  0.00    -0.271 OA
BRANCH  29  32
ATOM     32  CA  LYS     4      57.553  40.026  47.667  1.00  0.00     0.159 C 
BRANCH  32  33
ATOM     33  CB  LYS     4      56.214  39.597  48.295  1.00  0.00     0.032 C 
BRANCH  33  34
ATOM     34  CG  LYS     4      55.873  40.295  49.615  1.00  0.00     0.004 C 
BRANCH  34  35
ATOM     35  CD  LYS     4      54.356  40.457  49.745  1.00  0.00     0.032 C 
BRANCH  35  36
ATOM     36  CE  LYS     4      53.942  41.930  49.789  1.00  0.00     0.206 C 
BRANCH  36  37
ATOM     37  NZ  LYS     4      55.069  42.812  49.445  1.00  0.00    -0.064 N 
ATOM     38  HZ1 LYS     4      55.845  42.609  50.042  1.00 99.99     0.275 HD
ATOM     39  HZ2 LYS     4      55.335  42.662  48.493  1.00 99.99     0.275 HD
ATOM     40  HZ3 LYS     4      54.798  43.767  49.567  1.00 99.99     0.275 HD
ENDBRANCH  36  37
ENDBRANCH  35  36
ENDBRANCH  34  35
ENDBRANCH  33  34
ENDBRANCH  32  33
BRANCH  32  41
ATOM     41  C   LYS     4      57.331  41.195  46.673  1.00  0.00     0.251 C 
ATOM     42  N   ILE     5      58.215  41.268  45.684  1.00  0.00    -0.338 N 
ATOM     43  H   ILE     5      58.993  40.631  45.657  1.00 99.99     0.164 HD
ATOM     44  O   LYS     4      56.388  41.980  46.771  1.00  0.00    -0.271 OA
BRANCH  42  45
ATOM     45  CA  ILE     5      58.195  42.262  44.590  1.00  0.00     0.159 C 
BRANCH  45  46
ATOM     46  C   ILE     5      58.063  41.569  43.226  1.00  0.00     0.251 C 
ATOM     47  N   ARG     6      58.576  42.238  42.200  1.00  0.00    -0.338 N 
ATOM     48  H   ARG     6      59.008  43.131  42.305  1.00 99.99     0.164 HD
ATOM     49  O   ILE     5      57.601  40.432  43.133  1.00  0.00    -0.271 OA
BRANCH  47  50
ATOM     50  CA  ARG     6      58.621  41.682  40.834  1.00  0.00     0.159 C 
BRANCH  50  51
ATOM     51  CB  ARG     6      58.752  42.792  39.786  1.00  0.00     0.034 C 
BRANCH  51  52
ATOM     52  CG  ARG     6      58.659  42.259  38.355  1.00  0.00     0.027 C 
BRANCH  52  53
ATOM     53  CD  ARG     6      58.838  43.399  37.353  1.00  0.00     0.116 C 
BRANCH  53  54
ATOM     54  NE  ARG     6      58.350  42.970  36.028  1.00  0.00    -0.212 N 
ATOM     55  CZ  ARG     6      57.542  43.654  35.214  1.00  0.00     0.666 C 
ATOM     56  NH1 ARG     6      57.085  44.862  35.523  1.00  0.00    -0.235 N 
ATOM     57  NH2 ARG     6      57.168  43.124  34.059  1.00  0.00    -0.235 N 
ATOM     58 2HH1 ARG     6      57.356  45.274  36.388  1.00 99.99     0.174 HD
ATOM     59 1HH1 ARG     6      56.483  45.351  34.893  1.00 99.99     0.174 HD
ATOM     60 2HH2 ARG     6      57.484  42.217  33.793  1.00 99.99     0.174 HD
ATOM     61 1HH2 ARG     6      56.564  43.641  33.455  1.00 99.99     0.174 HD
ATOM     62  HE  ARG     6      58.670  42.074  35.734  1.00 99.99     0.178 HD
ENDBRANCH  53  54
ENDBRANCH  52  53
ENDBRANCH  51  52
ENDBRANCH  50  51
BRANCH  50  63
ATOM     63  C   ARG     6      59.829  40.746  40.725  1.00  0.00     0.251 C 
ATOM     64  N   ILE     7      60.981  41.359  40.491  1.00  0.00    -0.338 N 
ATOM     65  H   ILE     7      61.053  42.358  40.473  1.00 99.99     0.164 HD
ATOM     66  O   ARG     6      59.692  39.525  40.750  1.00  0.00    -0.271 OA
BRANCH  64  67
ATOM     67  CA  ILE     7      62.254  40.636  40.315  1.00  0.00     0.159 C 
BRANCH  67  68
ATOM     68  CB  ILE     7      63.161  41.358  39.290  1.00  0.00     0.029 C 
ATOM     69  CG2 ILE     7      64.510  40.632  39.197  1.00  0.00     0.002 C 
BRANCH  68  70
ATOM     70  CG1 ILE     7      62.476  41.553  37.919  1.00  0.00     0.002 C 
ATOM     71  CD  ILE     7      62.567  42.976  37.355  1.00  0.00     0.000 C 
ENDBRANCH  68  70
ENDBRANCH  67  68
BRANCH  67  72
ATOM     72  C   ILE     7      62.962  40.417  41.663  1.00  0.00     0.251 C 
ATOM     73  O   ILE     7      63.276  41.365  42.381  1.00  0.00    -0.271 OA
ATOM     74  N   LYS     8      63.099  39.148  42.024  1.00  0.00    -0.336 N 
ATOM     75  H   LYS     8      62.617  38.414  41.549  1.00 99.99     0.164 HD
BRANCH  74  76
ATOM     76  CA  LYS     8      64.004  38.701  43.105  1.00  0.00     0.168 C 
BRANCH  76  77
ATOM     77  C   LYS     8      65.081  37.832  42.433  1.00  0.00     0.206 C 
ATOM     78  O   LYS     8      64.968  37.585  41.213  1.00 99.99    -0.646 OA
ATOM     79  OXT LYS     8      65.874  37.281  43.231  1.00 99.99    -0.646 OA
ENDBRANCH  76  77
BRANCH  76  80
ATOM     80  CB  LYS     8      63.275  37.787  44.097  1.00  0.00     0.033 C 
BRANCH  80  81
ATOM     81  CG  LYS     8      62.767  38.454  45.378  1.00  0.00     0.004 C 
BRANCH  81  82
ATOM     82  CD  LYS     8      63.609  39.708  45.612  1.00  0.00     0.032 C 
BRANCH  82  83
ATOM     83  CE  LYS     8      63.964  39.916  47.084  1.00  0.00     0.206 C 
BRANCH  83  84
ATOM     84  NZ  LYS     8      63.345  38.855  47.890  1.00  0.00    -0.064 N 
ATOM     85  HZ3 LYS     8      62.411  38.697  47.571  1.00 99.99     0.275 HD
ATOM     86  HZ1 LYS     8      63.875  38.011  47.801  1.00 99.99     0.275 HD
ATOM     87  HZ2 LYS     8      63.324  39.136  48.850  1.00 99.99     0.275 HD
ENDBRANCH  83  84
ENDBRANCH  82  83
ENDBRANCH  81  82
ENDBRANCH  80  81
ENDBRANCH  76  80
ENDBRANCH  74  76
ENDBRANCH  67  72
ENDBRANCH  64  67
ENDBRANCH  50  63
ENDBRANCH  47  50
ENDBRANCH  45  46
BRANCH  45  88
ATOM     88  CB  ILE     5      59.450  43.168  44.603  1.00  0.00     0.029 C 
ATOM     89  CG2 ILE     5      59.029  44.630  44.803  1.00  0.00     0.002 C 
BRANCH  88  90
ATOM     90  CG1 ILE     5      60.514  42.703  45.614  1.00  0.00     0.002 C 
ATOM     91  CD  ILE     5      61.960  42.886  45.135  1.00  0.00     0.000 C 
ENDBRANCH  88  90
ENDBRANCH  45  88
ENDBRANCH  42  45
ENDBRANCH  32  41
ENDBRANCH  29  32
ENDBRANCH  27  28
BRANCH  27  92
ATOM     92  CB  ILE     3      59.724  40.356  51.242  1.00  0.00     0.029 C 
ATOM     93  CG2 ILE     3      60.236  39.424  52.352  1.00  0.00     0.002 C 
BRANCH  92  94
ATOM     94  CG1 ILE     3      59.573  41.793  51.773  1.00  0.00     0.002 C 
ATOM     95  CD  ILE     3      58.125  42.305  51.848  1.00  0.00     0.000 C 
ENDBRANCH  92  94
ENDBRANCH  27  92
ENDBRANCH  25  27
ENDBRANCH  10  23
ENDBRANCH   8  10
ENDBRANCH   5   6
BRANCH   5  96
ATOM     96  CB  ILE     1      66.557  42.642  46.150  1.00  0.00     0.037 C 
ATOM     97  CG2 ILE     1      66.078  42.097  44.796  1.00  0.00     0.002 C 
BRANCH  96  98
ATOM     98  CG1 ILE     1      68.029  43.102  46.127  1.00  0.00     0.002 C 
ATOM     99  CD  ILE     1      68.909  42.420  47.182  1.00  0.00     0.000 C 
ENDBRANCH  96  98
ENDBRANCH   5  96
ENDBRANCH   1   5
TORSDOF 42
ENDMDL
MODEL 6
REMARK VINA RESULT:      -4.6      2.521      9.924
REMARK WARNING: 32 MAX_TORS EXCEEDED!!!
REMARK  42 active torsions:
REMARK  status: ('A' for Active; 'I' for Inactive)
REMARK    1  A    between atoms: N_1  and  CA_2 
REMARK    2  A    between atoms: CA_2  and  C_3 
REMARK    3  A    between atoms: CA_2  and  CB_5 
REMARK       I    between atoms: C_3  and  N_12 
REMARK    4  A    between atoms: CB_5  and  CG1_6 
REMARK    5  A    between atoms: N_12  and  CA_13 
REMARK    6  A    between atoms: CA_13  and  CB_16 
REMARK    7  A    between atoms: CA_13  and  C_14 
REMARK       I    between atoms: C_14  and  N_29 
REMARK    8  A    between atoms: CB_16  and  CG_17 
REMARK    9  A    between atoms: CG_17  and  CD_18 
REMARK   10  A    between atoms: CD_18  and  NE_19 
REMARK       I    between atoms: NE_19  and  CZ_20 
REMARK       I    between atoms: CZ_20  and  NH2_22 
REMARK       I    between atoms: CZ_20  and  NH1_21 
REMARK   11  A    between atoms: N_29  and  CA_30 
REMARK   12  A    between atoms: CA_30  and  C_31 
REMARK   13  A    between atoms: CA_30  and  CB_33 
REMARK       I    between atoms: C_31  and  N_38 
REMARK   14  A    between atoms: CB_33  and  CG1_34 
REMARK   15  A    between atoms: N_38  and  CA_39 
REMARK   16  A    between atoms: CA_39  and  CB_42 
REMARK   17  A    between atoms: CA_39  and  C_40 
REMARK       I    between atoms: C_40  and  N_51 
REMARK   18  A    between atoms: CB_42  and  CG_43 
REMARK   19  A    between atoms: CG_43  and  CD_44 
REMARK   20  A    between atoms: CD_44  and  CE_45 
REMARK   21  A    between atoms: CE_45  and  NZ_46 
REMARK   22  A    between atoms: N_51  and  CA_52 
REMARK   23  A    between atoms: CA_52  and  C_53 
REMARK   24  A    between atoms: CA_52  and  CB_55 
REMARK       I    between atoms: C_53  and  N_60 
REMARK   25  A    between atoms: CB_55  and  CG1_56 
REMARK   26  A    between atoms: N_60  and  CA_61 
REMARK   27  A    between atoms: CA_61  and  CB_64 
REMARK   28  A    between atoms: CA_61  and  C_62 
REMARK       I    between atoms: C_62  and  N_77 
REMARK   29  A    between atoms: CB_64  and  CG_65 
REMARK   30  A    between atoms: CG_65  and  CD_66 
REMARK   31  A    between atoms: CD_66  and  NE_67 
REMARK       I    between atoms: NE_67  and  CZ_68 
REMARK       I    between atoms: CZ_68  and  NH1_69 
REMARK   32  A    between atoms: N_77  and  CA_78 
REMARK   33  A    between atoms: CA_78  and  CB_81 
REMARK   34  A    between atoms: CA_78  and  C_79 
REMARK       I    between atoms: C_79  and  N_86 
REMARK   35  A    between atoms: CB_81  and  CG1_82 
REMARK   36  A    between atoms: N_86  and  CA_87 
REMARK   37  A    between atoms: CA_87  and  C_88 
REMARK   38  A    between atoms: CA_87  and  CB_90 
REMARK   39  A    between atoms: CB_90  and  CG_91 
REMARK   40  A    between atoms: CG_91  and  CD_92 
REMARK   41  A    between atoms: CD_92  and  CE_93 
REMARK   42  A    between atoms: CE_93  and  NZ_94 
ROOT
ATOM      1  N   ILE     1      58.794  42.899  42.595  1.00  0.00    -0.058 N 
ATOM      2  H1  ILE     1      58.626  43.678  41.990  1.00 99.99     0.276 HD
ATOM      3  H2  ILE     1      58.405  43.083  43.485  1.00 99.99     0.276 HD
ATOM      4  H3  ILE     1      59.771  42.825  42.755  1.00 99.99     0.276 HD
ENDROOT
BRANCH   1   5
ATOM      5  CA  ILE     1      58.215  41.687  41.954  1.00  0.00     0.255 C 
BRANCH   5   6
ATOM      6  C   ILE     1      57.876  40.591  43.004  1.00  0.00     0.259 C 
ATOM      7  O   ILE     1      58.009  39.410  42.691  1.00  0.00    -0.271 OA
ATOM      8  N   ARG     2      57.378  40.950  44.198  1.00  0.00    -0.338 N 
ATOM      9  H   ARG     2      57.305  41.904  44.478  1.00 99.99     0.164 HD
BRANCH   8  10
ATOM     10  CA  ARG     2      57.008  39.968  45.251  1.00  0.00     0.159 C 
BRANCH  10  11
ATOM     11  CB  ARG     2      58.072  39.908  46.351  1.00  0.00     0.034 C 
BRANCH  11  12
ATOM     12  CG  ARG     2      59.431  40.473  45.922  1.00  0.00     0.027 C 
BRANCH  12  13
ATOM     13  CD  ARG     2      59.757  41.720  46.747  1.00  0.00     0.116 C 
BRANCH  13  14
ATOM     14  NE  ARG     2      58.561  42.202  47.462  1.00  0.00    -0.212 N 
ATOM     15  HE  ARG     2      58.296  41.667  48.262  1.00 99.99     0.178 HD
ATOM     16  CZ  ARG     2      57.795  43.241  47.114  1.00  0.00     0.666 C 
ATOM     17  NH2 ARG     2      56.783  43.614  47.890  1.00  0.00    -0.235 N 
ATOM     18  NH1 ARG     2      58.033  43.962  46.027  1.00  0.00    -0.235 N 
ATOM     19 1HH2 ARG     2      56.223  44.394  47.619  1.00 99.99     0.174 HD
ATOM     20 2HH2 ARG     2      56.581  43.124  48.733  1.00 99.99     0.174 HD
ATOM     21 2HH1 ARG     2      58.800  43.716  45.441  1.00 99.99     0.174 HD
ATOM     22 1HH1 ARG     2      57.445  44.736  45.793  1.00 99.99     0.174 HD
ENDBRANCH  13  14
ENDBRANCH  12  13
ENDBRANCH  11  12
ENDBRANCH  10  11
BRANCH  10  23
ATOM     23  C   ARG     2      55.624  40.178  45.906  1.00  0.00     0.251 C 
ATOM     24  O   ARG     2      54.673  40.569  45.233  1.00  0.00    -0.271 OA
ATOM     25  N   ILE     3      55.497  39.774  47.170  1.00  0.00    -0.338 N 
ATOM     26  H   ILE     3      56.219  39.251  47.614  1.00 99.99     0.164 HD
BRANCH  25  27
ATOM     27  CA  ILE     3      54.301  40.006  48.014  1.00  0.00     0.159 C 
BRANCH  27  28
ATOM     28  C   ILE     3      54.663  40.980  49.160  1.00  0.00     0.251 C 
ATOM     29  N   LYS     4      55.305  40.444  50.202  1.00  0.00    -0.338 N 
ATOM     30  H   LYS     4      55.532  39.474  50.201  1.00 99.99     0.164 HD
ATOM     31  O   ILE     3      54.431  42.180  49.027  1.00  0.00    -0.271 OA
BRANCH  29  32
ATOM     32  CA  LYS     4      55.704  41.139  51.454  1.00  0.00     0.159 C 
BRANCH  32  33
ATOM     33  CB  LYS     4      55.771  40.102  52.591  1.00  0.00     0.032 C 
BRANCH  33  34
ATOM     34  CG  LYS     4      54.673  40.242  53.649  1.00  0.00     0.004 C 
BRANCH  34  35
ATOM     35  CD  LYS     4      53.829  38.965  53.700  1.00  0.00     0.032 C 
BRANCH  35  36
ATOM     36  CE  LYS     4      53.113  38.702  52.373  1.00  0.00     0.206 C 
BRANCH  36  37
ATOM     37  NZ  LYS     4      53.046  37.262  52.078  1.00  0.00    -0.064 N 
ATOM     38  HZ1 LYS     4      53.318  37.104  51.129  1.00 99.99     0.275 HD
ATOM     39  HZ2 LYS     4      53.664  36.765  52.687  1.00 99.99     0.275 HD
ATOM     40  HZ3 LYS     4      52.111  36.934  52.214  1.00 99.99     0.275 HD
ENDBRANCH  36  37
ENDBRANCH  35  36
ENDBRANCH  34  35
ENDBRANCH  33  34
ENDBRANCH  32  33
BRANCH  32  41
ATOM     41  C   LYS     4      57.012  41.970  51.407  1.00  0.00     0.251 C 
ATOM     42  N   ILE     5      58.053  41.419  52.022  1.00  0.00    -0.338 N 
ATOM     43  H   ILE     5      57.939  40.556  52.525  1.00 99.99     0.164 HD
ATOM     44  O   LYS     4      57.093  43.047  50.815  1.00  0.00    -0.271 OA
BRANCH  42  45
ATOM     45  CA  ILE     5      59.414  41.992  52.081  1.00  0.00     0.159 C 
BRANCH  45  46
ATOM     46  C   ILE     5      60.100  41.910  50.709  1.00  0.00     0.251 C 
ATOM     47  N   ARG     6      60.852  42.957  50.390  1.00  0.00    -0.338 N 
ATOM     48  H   ARG     6      60.957  43.745  50.993  1.00 99.99     0.164 HD
ATOM     49  O   ILE     5      60.023  40.893  50.020  1.00  0.00    -0.271 OA
BRANCH  47  50
ATOM     50  CA  ARG     6      61.656  43.008  49.155  1.00  0.00     0.159 C 
BRANCH  50  51
ATOM     51  CB  ARG     6      62.091  44.441  48.832  1.00  0.00     0.034 C 
BRANCH  51  52
ATOM     52  CG  ARG     6      62.296  45.287  50.089  1.00  0.00     0.027 C 
BRANCH  52  53
ATOM     53  CD  ARG     6      62.982  46.606  49.735  1.00  0.00     0.116 C 
BRANCH  53  54
ATOM     54  NE  ARG     6      64.367  46.593  50.245  1.00  0.00    -0.212 N 
ATOM     55  CZ  ARG     6      65.463  46.229  49.574  1.00  0.00     0.666 C 
ATOM     56  NH1 ARG     6      65.418  45.839  48.305  1.00  0.00    -0.235 N 
ATOM     57  NH2 ARG     6      66.641  46.246  50.178  1.00  0.00    -0.235 N 
ATOM     58 2HH1 ARG     6      64.539  45.820  47.837  1.00 99.99     0.174 HD
ATOM     59 1HH1 ARG     6      66.255  45.575  47.828  1.00 99.99     0.174 HD
ATOM     60 2HH2 ARG     6      66.717  46.526  51.132  1.00 99.99     0.174 HD
ATOM     61 1HH2 ARG     6      67.457  45.974  49.671  1.00 99.99     0.174 HD
ATOM     62  HE  ARG     6      64.467  46.888  51.191  1.00 99.99     0.178 HD
ENDBRANCH  53  54
ENDBRANCH  52  53
ENDBRANCH  51  52
ENDBRANCH  50  51
BRANCH  50  63
ATOM     63  C   ARG     6      62.903  42.138  49.345  1.00  0.00     0.251 C 
ATOM     64  N   ILE     7      62.873  40.983  48.695  1.00  0.00    -0.338 N 
ATOM     65  H   ILE     7      62.128  40.749  48.068  1.00 99.99     0.164 HD
ATOM     66  O   ARG     6      63.793  42.464  50.129  1.00  0.00    -0.271 OA
BRANCH  64  67
ATOM     67  CA  ILE     7      63.958  39.988  48.777  1.00  0.00     0.159 C 
BRANCH  67  68
ATOM     68  CB  ILE     7      63.390  38.548  48.728  1.00  0.00     0.029 C 
ATOM     69  CG2 ILE     7      63.448  37.926  50.130  1.00  0.00     0.002 C 
BRANCH  68  70
ATOM     70  CG1 ILE     7      61.987  38.481  48.086  1.00  0.00     0.002 C 
ATOM     71  CD  ILE     7      61.929  37.725  46.753  1.00  0.00     0.000 C 
ENDBRANCH  68  70
ENDBRANCH  67  68
BRANCH  67  72
ATOM     72  C   ILE     7      65.021  40.229  47.692  1.00  0.00     0.251 C 
ATOM     73  O   ILE     7      65.203  39.420  46.784  1.00  0.00    -0.271 OA
ATOM     74  N   LYS     8      65.629  41.407  47.755  1.00  0.00    -0.336 N 
ATOM     75  H   LYS     8      65.290  42.140  48.343  1.00 99.99     0.164 HD
BRANCH  74  76
ATOM     76  CA  LYS     8      66.873  41.723  47.021  1.00  0.00     0.168 C 
BRANCH  76  77
ATOM     77  C   LYS     8      67.690  42.650  47.938  1.00  0.00     0.206 C 
ATOM     78  O   LYS     8      68.937  42.590  47.884  1.00 99.99    -0.646 OA
ATOM     79  OXT LYS     8      67.013  43.244  48.808  1.00 99.99    -0.646 OA
ENDBRANCH  76  77
BRANCH  76  80
ATOM     80  CB  LYS     8      66.578  42.530  45.751  1.00  0.00     0.033 C 
BRANCH  80  81
ATOM     81  CG  LYS     8      65.292  43.358  45.764  1.00  0.00     0.004 C 
BRANCH  81  82
ATOM     82  CD  LYS     8      64.374  42.807  44.672  1.00  0.00     0.032 C 
BRANCH  82  83
ATOM     83  CE  LYS     8      63.074  42.230  45.229  1.00  0.00     0.206 C 
BRANCH  83  84
ATOM     84  NZ  LYS     8      63.014  40.791  44.939  1.00  0.00    -0.064 N 
ATOM     85  HZ3 LYS     8      63.500  40.603  44.086  1.00 99.99     0.275 HD
ATOM     86  HZ1 LYS     8      63.442  40.278  45.685  1.00 99.99     0.275 HD
ATOM     87  HZ2 LYS     8      62.059  40.509  44.846  1.00 99.99     0.275 HD
ENDBRANCH  83  84
ENDBRANCH  82  83
ENDBRANCH  81  82
ENDBRANCH  80  81
ENDBRANCH  76  80
ENDBRANCH  74  76
ENDBRANCH  67  72
ENDBRANCH  64  67
ENDBRANCH  50  63
ENDBRANCH  47  50
ENDBRANCH  45  46
BRANCH  45  88
ATOM     88  CB  ILE     5      60.291  41.301  53.153  1.00  0.00     0.029 C 
ATOM     89  CG2 ILE     5      59.522  40.124  53.767  1.00  0.00     0.002 C 
BRANCH  88  90
ATOM     90  CG1 ILE     5      61.681  40.902  52.622  1.00  0.00     0.002 C 
ATOM     91  CD  ILE     5      62.846  41.647  53.289  1.00  0.00     0.000 C 
ENDBRANCH  88  90
ENDBRANCH  45  88
ENDBRANCH  42  45
ENDBRANCH  32  41
ENDBRANCH  29  32
ENDBRANCH  27  28
BRANCH  27  92
ATOM     92  CB  ILE     3      53.792  38.635  48.535  1.00  0.00     0.029 C 
ATOM     93  CG2 ILE     3      52.394  38.292  47.997  1.00  0.00     0.002 C 
BRANCH  92  94
ATOM     94  CG1 ILE     3      54.796  37.525  48.173  1.00  0.00     0.002 C 
ATOM     95  CD  ILE     3      55.496  36.869  49.374  1.00  0.00     0.000 C 
ENDBRANCH  92  94
ENDBRANCH  27  92
ENDBRANCH  25  27
ENDBRANCH  10  23
ENDBRANCH   8  10
ENDBRANCH   5   6
BRANCH   5  96
ATOM     96  CB  ILE     1      59.110  41.143  40.816  1.00  0.00     0.037 C 
ATOM     97  CG2 ILE     1      58.275  40.926  39.545  1.00  0.00     0.002 C 
BRANCH  96  98
ATOM     98  CG1 ILE     1      60.360  42.014  40.574  1.00  0.00     0.002 C 
ATOM     99  CD  ILE     1      60.295  42.849  39.289  1.00  0.00     0.000 C 
ENDBRANCH  96  98
ENDBRANCH   5  96
ENDBRANCH   1   5
TORSDOF 42
ENDMDL
MODEL 7
REMARK VINA RESULT:      -4.6      2.079     11.318
REMARK WARNING: 32 MAX_TORS EXCEEDED!!!
REMARK  42 active torsions:
REMARK  status: ('A' for Active; 'I' for Inactive)
REMARK    1  A    between atoms: N_1  and  CA_2 
REMARK    2  A    between atoms: CA_2  and  C_3 
REMARK    3  A    between atoms: CA_2  and  CB_5 
REMARK       I    between atoms: C_3  and  N_12 
REMARK    4  A    between atoms: CB_5  and  CG1_6 
REMARK    5  A    between atoms: N_12  and  CA_13 
REMARK    6  A    between atoms: CA_13  and  CB_16 
REMARK    7  A    between atoms: CA_13  and  C_14 
REMARK       I    between atoms: C_14  and  N_29 
REMARK    8  A    between atoms: CB_16  and  CG_17 
REMARK    9  A    between atoms: CG_17  and  CD_18 
REMARK   10  A    between atoms: CD_18  and  NE_19 
REMARK       I    between atoms: NE_19  and  CZ_20 
REMARK       I    between atoms: CZ_20  and  NH2_22 
REMARK       I    between atoms: CZ_20  and  NH1_21 
REMARK   11  A    between atoms: N_29  and  CA_30 
REMARK   12  A    between atoms: CA_30  and  C_31 
REMARK   13  A    between atoms: CA_30  and  CB_33 
REMARK       I    between atoms: C_31  and  N_38 
REMARK   14  A    between atoms: CB_33  and  CG1_34 
REMARK   15  A    between atoms: N_38  and  CA_39 
REMARK   16  A    between atoms: CA_39  and  CB_42 
REMARK   17  A    between atoms: CA_39  and  C_40 
REMARK       I    between atoms: C_40  and  N_51 
REMARK   18  A    between atoms: CB_42  and  CG_43 
REMARK   19  A    between atoms: CG_43  and  CD_44 
REMARK   20  A    between atoms: CD_44  and  CE_45 
REMARK   21  A    between atoms: CE_45  and  NZ_46 
REMARK   22  A    between atoms: N_51  and  CA_52 
REMARK   23  A    between atoms: CA_52  and  C_53 
REMARK   24  A    between atoms: CA_52  and  CB_55 
REMARK       I    between atoms: C_53  and  N_60 
REMARK   25  A    between atoms: CB_55  and  CG1_56 
REMARK   26  A    between atoms: N_60  and  CA_61 
REMARK   27  A    between atoms: CA_61  and  CB_64 
REMARK   28  A    between atoms: CA_61  and  C_62 
REMARK       I    between atoms: C_62  and  N_77 
REMARK   29  A    between atoms: CB_64  and  CG_65 
REMARK   30  A    between atoms: CG_65  and  CD_66 
REMARK   31  A    between atoms: CD_66  and  NE_67 
REMARK       I    between atoms: NE_67  and  CZ_68 
REMARK       I    between atoms: CZ_68  and  NH1_69 
REMARK   32  A    between atoms: N_77  and  CA_78 
REMARK   33  A    between atoms: CA_78  and  CB_81 
REMARK   34  A    between atoms: CA_78  and  C_79 
REMARK       I    between atoms: C_79  and  N_86 
REMARK   35  A    between atoms: CB_81  and  CG1_82 
REMARK   36  A    between atoms: N_86  and  CA_87 
REMARK   37  A    between atoms: CA_87  and  C_88 
REMARK   38  A    between atoms: CA_87  and  CB_90 
REMARK   39  A    between atoms: CB_90  and  CG_91 
REMARK   40  A    between atoms: CG_91  and  CD_92 
REMARK   41  A    between atoms: CD_92  and  CE_93 
REMARK   42  A    between atoms: CE_93  and  NZ_94 
ROOT
ATOM      1  N   ILE     1      59.181  42.703  46.885  1.00  0.00    -0.058 N 
ATOM      2  H1  ILE     1      59.285  43.685  47.048  1.00 99.99     0.276 HD
ATOM      3  H2  ILE     1      59.509  42.202  47.672  1.00 99.99     0.276 HD
ATOM      4  H3  ILE     1      59.787  42.437  46.145  1.00 99.99     0.276 HD
ENDROOT
BRANCH   1   5
ATOM      5  CA  ILE     1      57.747  42.436  46.591  1.00  0.00     0.255 C 
BRANCH   5   6
ATOM      6  C   ILE     1      56.816  43.069  47.664  1.00  0.00     0.259 C 
ATOM      7  O   ILE     1      56.555  44.268  47.588  1.00  0.00    -0.271 OA
ATOM      8  N   ARG     2      56.378  42.317  48.686  1.00  0.00    -0.338 N 
ATOM      9  H   ARG     2      56.549  41.336  48.736  1.00 99.99     0.164 HD
BRANCH   8  10
ATOM     10  CA  ARG     2      55.503  42.847  49.765  1.00  0.00     0.159 C 
BRANCH  10  11
ATOM     11  CB  ARG     2      54.150  42.128  49.783  1.00  0.00     0.034 C 
BRANCH  11  12
ATOM     12  CG  ARG     2      54.253  40.620  49.527  1.00  0.00     0.027 C 
BRANCH  12  13
ATOM     13  CD  ARG     2      53.443  40.250  48.282  1.00  0.00     0.116 C 
BRANCH  13  14
ATOM     14  NE  ARG     2      54.298  39.591  47.278  1.00  0.00    -0.212 N 
ATOM     15  HE  ARG     2      55.138  40.079  47.045  1.00 99.99     0.178 HD
ATOM     16  CZ  ARG     2      54.032  38.449  46.637  1.00  0.00     0.666 C 
ATOM     17  NH2 ARG     2      54.925  37.927  45.805  1.00  0.00    -0.235 N 
ATOM     18  NH1 ARG     2      52.907  37.774  46.833  1.00  0.00    -0.235 N 
ATOM     19 1HH2 ARG     2      54.714  37.071  45.336  1.00 99.99     0.174 HD
ATOM     20 2HH2 ARG     2      55.798  38.379  45.646  1.00 99.99     0.174 HD
ATOM     21 2HH1 ARG     2      52.231  38.134  47.470  1.00 99.99     0.174 HD
ATOM     22 1HH1 ARG     2      52.736  36.921  46.342  1.00 99.99     0.174 HD
ENDBRANCH  13  14
ENDBRANCH  12  13
ENDBRANCH  11  12
ENDBRANCH  10  11
BRANCH  10  23
ATOM     23  C   ARG     2      56.103  42.817  51.189  1.00  0.00     0.251 C 
ATOM     24  O   ARG     2      55.813  43.693  52.001  1.00  0.00    -0.271 OA
ATOM     25  N   ILE     3      56.806  41.733  51.516  1.00  0.00    -0.338 N 
ATOM     26  H   ILE     3      56.828  40.939  50.915  1.00 99.99     0.164 HD
BRANCH  25  27
ATOM     27  CA  ILE     3      57.570  41.570  52.775  1.00  0.00     0.159 C 
BRANCH  27  28
ATOM     28  C   ILE     3      58.847  42.440  52.718  1.00  0.00     0.251 C 
ATOM     29  N   LYS     4      59.781  42.051  51.844  1.00  0.00    -0.338 N 
ATOM     30  H   LYS     4      59.624  41.250  51.272  1.00 99.99     0.164 HD
ATOM     31  O   ILE     3      58.909  43.467  53.391  1.00  0.00    -0.271 OA
BRANCH  29  32
ATOM     32  CA  LYS     4      61.119  42.665  51.639  1.00  0.00     0.159 C 
BRANCH  32  33
ATOM     33  CB  LYS     4      62.195  41.653  52.076  1.00  0.00     0.032 C 
BRANCH  33  34
ATOM     34  CG  LYS     4      62.208  40.348  51.275  1.00  0.00     0.004 C 
BRANCH  34  35
ATOM     35  CD  LYS     4      61.712  39.193  52.150  1.00  0.00     0.032 C 
BRANCH  35  36
ATOM     36  CE  LYS     4      61.321  37.972  51.313  1.00  0.00     0.206 C 
BRANCH  36  37
ATOM     37  NZ  LYS     4      60.033  38.182  50.631  1.00  0.00    -0.064 N 
ATOM     38  HZ1 LYS     4      59.663  37.299  50.341  1.00 99.99     0.275 HD
ATOM     39  HZ2 LYS     4      59.390  38.622  51.256  1.00 99.99     0.275 HD
ATOM     40  HZ3 LYS     4      60.169  38.763  49.829  1.00 99.99     0.275 HD
ENDBRANCH  36  37
ENDBRANCH  35  36
ENDBRANCH  34  35
ENDBRANCH  33  34
ENDBRANCH  32  33
BRANCH  32  41
ATOM     41  C   LYS     4      61.432  43.203  50.219  1.00  0.00     0.251 C 
ATOM     42  N   ILE     5      62.537  43.934  50.124  1.00  0.00    -0.338 N 
ATOM     43  H   ILE     5      63.068  44.152  50.950  1.00 99.99     0.164 HD
ATOM     44  O   LYS     4      60.727  42.948  49.242  1.00  0.00    -0.271 OA
BRANCH  42  45
ATOM     45  CA  ILE     5      63.070  44.523  48.877  1.00  0.00     0.159 C 
BRANCH  45  46
ATOM     46  C   ILE     5      64.081  43.574  48.216  1.00  0.00     0.251 C 
ATOM     47  N   ARG     6      64.608  44.014  47.079  1.00  0.00    -0.338 N 
ATOM     48  H   ARG     6      64.358  44.892  46.678  1.00 99.99     0.164 HD
ATOM     49  O   ILE     5      64.435  42.535  48.772  1.00  0.00    -0.271 OA
BRANCH  47  50
ATOM     50  CA  ARG     6      65.662  43.277  46.357  1.00  0.00     0.159 C 
BRANCH  50  51
ATOM     51  CB  ARG     6      66.560  42.500  47.325  1.00  0.00     0.034 C 
BRANCH  51  52
ATOM     52  CG  ARG     6      68.011  42.981  47.291  1.00  0.00     0.027 C 
BRANCH  52  53
ATOM     53  CD  ARG     6      68.271  43.793  46.022  1.00  0.00     0.116 C 
BRANCH  53  54
ATOM     54  NE  ARG     6      69.374  43.176  45.261  1.00  0.00    -0.212 N 
ATOM     55  CZ  ARG     6      69.263  42.398  44.181  1.00  0.00     0.666 C 
ATOM     56  NH1 ARG     6      68.086  42.100  43.643  1.00  0.00    -0.235 N 
ATOM     57  NH2 ARG     6      70.351  41.894  43.618  1.00  0.00    -0.235 N 
ATOM     58 2HH1 ARG     6      67.259  42.470  44.055  1.00 99.99     0.174 HD
ATOM     59 1HH1 ARG     6      68.034  41.516  42.833  1.00 99.99     0.174 HD
ATOM     60 2HH2 ARG     6      71.252  42.089  43.995  1.00 99.99     0.174 HD
ATOM     61 1HH2 ARG     6      70.261  41.314  42.810  1.00 99.99     0.174 HD
ATOM     62  HE  ARG     6      70.286  43.374  45.610  1.00 99.99     0.178 HD
ENDBRANCH  53  54
ENDBRANCH  52  53
ENDBRANCH  51  52
ENDBRANCH  50  51
BRANCH  50  63
ATOM     63  C   ARG     6      64.996  42.291  45.391  1.00  0.00     0.251 C 
ATOM     64  N   ILE     7      64.542  41.184  45.961  1.00  0.00    -0.338 N 
ATOM     65  H   ILE     7      64.564  41.054  46.954  1.00 99.99     0.164 HD
ATOM     66  O   ARG     6      64.996  42.491  44.178  1.00  0.00    -0.271 OA
BRANCH  64  67
ATOM     67  CA  ILE     7      63.903  40.094  45.201  1.00  0.00     0.159 C 
BRANCH  67  68
ATOM     68  CB  ILE     7      64.217  38.719  45.839  1.00  0.00     0.029 C 
ATOM     69  CG2 ILE     7      65.442  38.101  45.151  1.00  0.00     0.002 C 
BRANCH  68  70
ATOM     70  CG1 ILE     7      64.349  38.790  47.376  1.00  0.00     0.002 C 
ATOM     71  CD  ILE     7      63.062  38.468  48.145  1.00  0.00     0.000 C 
ENDBRANCH  68  70
ENDBRANCH  67  68
BRANCH  67  72
ATOM     72  C   ILE     7      62.391  40.331  45.048  1.00  0.00     0.251 C 
ATOM     73  O   ILE     7      61.797  41.142  45.756  1.00  0.00    -0.271 OA
ATOM     74  N   LYS     8      61.822  39.685  44.039  1.00  0.00    -0.336 N 
ATOM     75  H   LYS     8      62.365  39.234  43.333  1.00 99.99     0.164 HD
BRANCH  74  76
ATOM     76  CA  LYS     8      60.358  39.523  43.897  1.00  0.00     0.168 C 
BRANCH  76  77
ATOM     77  C   LYS     8      60.084  38.011  43.969  1.00  0.00     0.206 C 
ATOM     78  O   LYS     8      61.045  37.226  43.828  1.00 99.99    -0.646 OA
ATOM     79  OXT LYS     8      58.869  37.705  43.966  1.00 99.99    -0.646 OA
ENDBRANCH  76  77
BRANCH  76  80
ATOM     80  CB  LYS     8      59.882  39.978  42.512  1.00  0.00     0.033 C 
BRANCH  80  81
ATOM     81  CG  LYS     8      60.833  40.896  41.741  1.00  0.00     0.004 C 
BRANCH  81  82
ATOM     82  CD  LYS     8      60.223  42.298  41.739  1.00  0.00     0.032 C 
BRANCH  82  83
ATOM     83  CE  LYS     8      60.583  43.101  42.988  1.00  0.00     0.206 C 
BRANCH  83  84
ATOM     84  NZ  LYS     8      62.043  43.113  43.158  1.00  0.00    -0.064 N 
ATOM     85  HZ3 LYS     8      62.407  43.990  42.845  1.00 99.99     0.275 HD
ATOM     86  HZ1 LYS     8      62.272  42.983  44.123  1.00 99.99     0.275 HD
ATOM     87  HZ2 LYS     8      62.446  42.374  42.617  1.00 99.99     0.275 HD
ENDBRANCH  83  84
ENDBRANCH  82  83
ENDBRANCH  81  82
ENDBRANCH  80  81
ENDBRANCH  76  80
ENDBRANCH  74  76
ENDBRANCH  67  72
ENDBRANCH  64  67
ENDBRANCH  50  63
ENDBRANCH  47  50
ENDBRANCH  45  46
BRANCH  45  88
ATOM     88  CB  ILE     5      63.723  45.906  49.118  1.00  0.00     0.029 C 
ATOM     89  CG2 ILE     5      62.638  46.932  49.471  1.00  0.00     0.002 C 
BRANCH  88  90
ATOM     90  CG1 ILE     5      64.866  45.857  50.149  1.00  0.00     0.002 C 
ATOM     91  CD  ILE     5      66.237  46.259  49.587  1.00  0.00     0.000 C 
ENDBRANCH  88  90
ENDBRANCH  45  88
ENDBRANCH  42  45
ENDBRANCH  32  41
ENDBRANCH  29  32
ENDBRANCH  27  28
BRANCH  27  92
ATOM     92  CB  ILE     3      57.883  40.062  52.970  1.00  0.00     0.029 C 
ATOM     93  CG2 ILE     3      58.504  39.771  54.345  1.00  0.00     0.002 C 
BRANCH  92  94
ATOM     94  CG1 ILE     3      56.607  39.226  52.766  1.00  0.00     0.002 C 
ATOM     95  CD  ILE     3      56.840  37.820  52.189  1.00  0.00     0.000 C 
ENDBRANCH  92  94
ENDBRANCH  27  92
ENDBRANCH  25  27
ENDBRANCH  10  23
ENDBRANCH   8  10
ENDBRANCH   5   6
BRANCH   5  96
ATOM     96  CB  ILE     1      57.462  40.929  46.390  1.00  0.00     0.037 C 
ATOM     97  CG2 ILE     1      57.068  40.656  44.931  1.00  0.00     0.002 C 
BRANCH  96  98
ATOM     98  CG1 ILE     1      58.619  40.034  46.879  1.00  0.00     0.002 C 
ATOM     99  CD  ILE     1      58.177  38.633  47.319  1.00  0.00     0.000 C 
ENDBRANCH  96  98
ENDBRANCH   5  96
ENDBRANCH   1   5
TORSDOF 42
ENDMDL
MODEL 8
REMARK VINA RESULT:      -4.5      2.600     10.958
REMARK WARNING: 32 MAX_TORS EXCEEDED!!!
REMARK  42 active torsions:
REMARK  status: ('A' for Active; 'I' for Inactive)
REMARK    1  A    between atoms: N_1  and  CA_2 
REMARK    2  A    between atoms: CA_2  and  C_3 
REMARK    3  A    between atoms: CA_2  and  CB_5 
REMARK       I    between atoms: C_3  and  N_12 
REMARK    4  A    between atoms: CB_5  and  CG1_6 
REMARK    5  A    between atoms: N_12  and  CA_13 
REMARK    6  A    between atoms: CA_13  and  CB_16 
REMARK    7  A    between atoms: CA_13  and  C_14 
REMARK       I    between atoms: C_14  and  N_29 
REMARK    8  A    between atoms: CB_16  and  CG_17 
REMARK    9  A    between atoms: CG_17  and  CD_18 
REMARK   10  A    between atoms: CD_18  and  NE_19 
REMARK       I    between atoms: NE_19  and  CZ_20 
REMARK       I    between atoms: CZ_20  and  NH2_22 
REMARK       I    between atoms: CZ_20  and  NH1_21 
REMARK   11  A    between atoms: N_29  and  CA_30 
REMARK   12  A    between atoms: CA_30  and  C_31 
REMARK   13  A    between atoms: CA_30  and  CB_33 
REMARK       I    between atoms: C_31  and  N_38 
REMARK   14  A    between atoms: CB_33  and  CG1_34 
REMARK   15  A    between atoms: N_38  and  CA_39 
REMARK   16  A    between atoms: CA_39  and  CB_42 
REMARK   17  A    between atoms: CA_39  and  C_40 
REMARK       I    between atoms: C_40  and  N_51 
REMARK   18  A    between atoms: CB_42  and  CG_43 
REMARK   19  A    between atoms: CG_43  and  CD_44 
REMARK   20  A    between atoms: CD_44  and  CE_45 
REMARK   21  A    between atoms: CE_45  and  NZ_46 
REMARK   22  A    between atoms: N_51  and  CA_52 
REMARK   23  A    between atoms: CA_52  and  C_53 
REMARK   24  A    between atoms: CA_52  and  CB_55 
REMARK       I    between atoms: C_53  and  N_60 
REMARK   25  A    between atoms: CB_55  and  CG1_56 
REMARK   26  A    between atoms: N_60  and  CA_61 
REMARK   27  A    between atoms: CA_61  and  CB_64 
REMARK   28  A    between atoms: CA_61  and  C_62 
REMARK       I    between atoms: C_62  and  N_77 
REMARK   29  A    between atoms: CB_64  and  CG_65 
REMARK   30  A    between atoms: CG_65  and  CD_66 
REMARK   31  A    between atoms: CD_66  and  NE_67 
REMARK       I    between atoms: NE_67  and  CZ_68 
REMARK       I    between atoms: CZ_68  and  NH1_69 
REMARK   32  A    between atoms: N_77  and  CA_78 
REMARK   33  A    between atoms: CA_78  and  CB_81 
REMARK   34  A    between atoms: CA_78  and  C_79 
REMARK       I    between atoms: C_79  and  N_86 
REMARK   35  A    between atoms: CB_81  and  CG1_82 
REMARK   36  A    between atoms: N_86  and  CA_87 
REMARK   37  A    between atoms: CA_87  and  C_88 
REMARK   38  A    between atoms: CA_87  and  CB_90 
REMARK   39  A    between atoms: CB_90  and  CG_91 
REMARK   40  A    between atoms: CG_91  and  CD_92 
REMARK   41  A    between atoms: CD_92  and  CE_93 
REMARK   42  A    between atoms: CE_93  and  NZ_94 
ROOT
ATOM      1  N   ILE     1      54.329  38.098  54.446  1.00  0.00    -0.058 N 
ATOM      2  H1  ILE     1      54.693  37.775  53.571  1.00 99.99     0.276 HD
ATOM      3  H2  ILE     1      54.441  37.392  55.129  1.00 99.99     0.276 HD
ATOM      4  H3  ILE     1      53.347  38.215  54.360  1.00 99.99     0.276 HD
ENDROOT
BRANCH   1   5
ATOM      5  CA  ILE     1      55.037  39.358  54.799  1.00  0.00     0.255 C 
BRANCH   5   6
ATOM      6  C   ILE     1      55.639  40.047  53.541  1.00  0.00     0.259 C 
ATOM      7  O   ILE     1      55.547  39.479  52.454  1.00  0.00    -0.271 OA
ATOM      8  N   ARG     2      56.305  41.204  53.675  1.00  0.00    -0.338 N 
ATOM      9  H   ARG     2      56.351  41.694  54.543  1.00 99.99     0.164 HD
BRANCH   8  10
ATOM     10  CA  ARG     2      56.929  41.919  52.530  1.00  0.00     0.159 C 
BRANCH  10  11
ATOM     11  CB  ARG     2      56.034  43.059  52.036  1.00  0.00     0.034 C 
BRANCH  11  12
ATOM     12  CG  ARG     2      55.920  43.134  50.510  1.00  0.00     0.027 C 
BRANCH  12  13
ATOM     13  CD  ARG     2      55.368  41.815  49.966  1.00  0.00     0.116 C 
BRANCH  13  14
ATOM     14  NE  ARG     2      54.013  41.559  50.488  1.00  0.00    -0.212 N 
ATOM     15  HE  ARG     2      53.803  41.993  51.363  1.00 99.99     0.178 HD
ATOM     16  CZ  ARG     2      53.081  40.782  49.928  1.00  0.00     0.666 C 
ATOM     17  NH2 ARG     2      51.871  40.694  50.469  1.00  0.00    -0.235 N 
ATOM     18  NH1 ARG     2      53.301  40.113  48.804  1.00  0.00    -0.235 N 
ATOM     19 1HH2 ARG     2      51.185  40.113  50.037  1.00 99.99     0.174 HD
ATOM     20 2HH2 ARG     2      51.646  41.201  51.296  1.00 99.99     0.174 HD
ATOM     21 2HH1 ARG     2      54.194  40.180  48.367  1.00 99.99     0.174 HD
ATOM     22 1HH1 ARG     2      52.585  39.541  48.406  1.00 99.99     0.174 HD
ENDBRANCH  13  14
ENDBRANCH  12  13
ENDBRANCH  11  12
ENDBRANCH  10  11
BRANCH  10  23
ATOM     23  C   ARG     2      58.351  42.472  52.779  1.00  0.00     0.251 C 
ATOM     24  O   ARG     2      58.505  43.543  53.361  1.00  0.00    -0.271 OA
ATOM     25  N   ILE     3      59.365  41.664  52.471  1.00  0.00    -0.338 N 
ATOM     26  H   ILE     3      59.203  40.715  52.217  1.00 99.99     0.164 HD
BRANCH  25  27
ATOM     27  CA  ILE     3      60.795  42.053  52.509  1.00  0.00     0.159 C 
BRANCH  27  28
ATOM     28  C   ILE     3      61.219  42.587  51.121  1.00  0.00     0.251 C 
ATOM     29  N   LYS     4      62.340  43.315  51.092  1.00  0.00    -0.338 N 
ATOM     30  H   LYS     4      62.852  43.473  51.932  1.00 99.99     0.164 HD
ATOM     31  O   ILE     3      60.578  42.256  50.125  1.00  0.00    -0.271 OA
BRANCH  29  32
ATOM     32  CA  LYS     4      62.927  43.997  49.909  1.00  0.00     0.159 C 
BRANCH  32  33
ATOM     33  CB  LYS     4      63.715  45.228  50.394  1.00  0.00     0.032 C 
BRANCH  33  34
ATOM     34  CG  LYS     4      64.266  46.116  49.275  1.00  0.00     0.004 C 
BRANCH  34  35
ATOM     35  CD  LYS     4      65.728  46.471  49.560  1.00  0.00     0.032 C 
BRANCH  35  36
ATOM     36  CE  LYS     4      66.646  46.081  48.399  1.00  0.00     0.206 C 
BRANCH  36  37
ATOM     37  NZ  LYS     4      65.895  45.406  47.328  1.00  0.00    -0.064 N 
ATOM     38  HZ1 LYS     4      66.400  44.596  47.028  1.00 99.99     0.275 HD
ATOM     39  HZ2 LYS     4      64.998  45.129  47.670  1.00 99.99     0.275 HD
ATOM     40  HZ3 LYS     4      65.779  46.029  46.555  1.00 99.99     0.275 HD
ENDBRANCH  36  37
ENDBRANCH  35  36
ENDBRANCH  34  35
ENDBRANCH  33  34
ENDBRANCH  32  33
BRANCH  32  41
ATOM     41  C   LYS     4      63.804  43.133  48.967  1.00  0.00     0.251 C 
ATOM     42  N   ILE     5      63.148  42.531  47.981  1.00  0.00    -0.338 N 
ATOM     43  H   ILE     5      62.147  42.605  47.925  1.00 99.99     0.164 HD
ATOM     44  O   LYS     4      65.024  43.035  49.100  1.00  0.00    -0.271 OA
BRANCH  42  45
ATOM     45  CA  ILE     5      63.762  41.691  46.931  1.00  0.00     0.159 C 
BRANCH  45  46
ATOM     46  C   ILE     5      63.834  42.449  45.598  1.00  0.00     0.251 C 
ATOM     47  N   ARG     6      63.033  41.989  44.643  1.00  0.00    -0.338 N 
ATOM     48  H   ARG     6      62.437  41.202  44.778  1.00 99.99     0.164 HD
ATOM     49  O   ILE     5      64.515  43.467  45.482  1.00  0.00    -0.271 OA
BRANCH  47  50
ATOM     50  CA  ARG     6      62.904  42.651  43.331  1.00  0.00     0.159 C 
BRANCH  50  51
ATOM     51  CB  ARG     6      63.826  42.009  42.290  1.00  0.00     0.034 C 
BRANCH  51  52
ATOM     52  CG  ARG     6      64.031  40.513  42.533  1.00  0.00     0.027 C 
BRANCH  52  53
ATOM     53  CD  ARG     6      63.588  39.712  41.310  1.00  0.00     0.116 C 
BRANCH  53  54
ATOM     54  NE  ARG     6      62.939  40.614  40.338  1.00  0.00    -0.212 N 
ATOM     55  CZ  ARG     6      62.963  40.506  39.008  1.00  0.00     0.666 C 
ATOM     56  NH1 ARG     6      63.590  39.512  38.390  1.00  0.00    -0.235 N 
ATOM     57  NH2 ARG     6      62.351  41.414  38.262  1.00  0.00    -0.235 N 
ATOM     58 2HH1 ARG     6      64.056  38.822  38.937  1.00 99.99     0.174 HD
ATOM     59 1HH1 ARG     6      63.589  39.456  37.393  1.00 99.99     0.174 HD
ATOM     60 2HH2 ARG     6      61.874  42.179  38.687  1.00 99.99     0.174 HD
ATOM     61 1HH2 ARG     6      62.372  41.327  37.268  1.00 99.99     0.174 HD
ATOM     62  HE  ARG     6      62.441  41.376  40.743  1.00 99.99     0.178 HD
ENDBRANCH  53  54
ENDBRANCH  52  53
ENDBRANCH  51  52
ENDBRANCH  50  51
BRANCH  50  63
ATOM     63  C   ARG     6      61.451  42.523  42.859  1.00  0.00     0.251 C 
ATOM     64  N   ILE     7      60.866  41.379  43.184  1.00  0.00    -0.338 N 
ATOM     65  H   ILE     7      61.320  40.700  43.763  1.00 99.99     0.164 HD
ATOM     66  O   ARG     6      60.936  43.382  42.147  1.00  0.00    -0.271 OA
BRANCH  64  67
ATOM     67  CA  ILE     7      59.485  41.045  42.792  1.00  0.00     0.159 C 
BRANCH  67  68
ATOM     68  CB  ILE     7      59.392  39.583  42.291  1.00  0.00     0.029 C 
ATOM     69  CG2 ILE     7      59.386  39.566  40.756  1.00  0.00     0.002 C 
BRANCH  68  70
ATOM     70  CG1 ILE     7      60.474  38.670  42.909  1.00  0.00     0.002 C 
ATOM     71  CD  ILE     7      60.068  38.000  44.227  1.00  0.00     0.000 C 
ENDBRANCH  68  70
ENDBRANCH  67  68
BRANCH  67  72
ATOM     72  C   ILE     7      58.495  41.330  43.934  1.00  0.00     0.251 C 
ATOM     73  O   ILE     7      57.281  41.347  43.740  1.00  0.00    -0.271 OA
ATOM     74  N   LYS     8      59.045  41.444  45.137  1.00  0.00    -0.336 N 
ATOM     75  H   LYS     8      59.994  41.180  45.305  1.00 99.99     0.164 HD
BRANCH  74  76
ATOM     76  CA  LYS     8      58.340  42.012  46.306  1.00  0.00     0.168 C 
BRANCH  76  77
ATOM     77  C   LYS     8      59.260  43.109  46.870  1.00  0.00     0.206 C 
ATOM     78  O   LYS     8      58.736  44.072  47.471  1.00 99.99    -0.646 OA
ATOM     79  OXT LYS     8      60.452  43.030  46.493  1.00 99.99    -0.646 OA
ENDBRANCH  76  77
BRANCH  76  80
ATOM     80  CB  LYS     8      58.183  40.971  47.420  1.00  0.00     0.033 C 
BRANCH  80  81
ATOM     81  CG  LYS     8      56.978  40.036  47.301  1.00  0.00     0.004 C 
BRANCH  81  82
ATOM     82  CD  LYS     8      57.485  38.690  46.784  1.00  0.00     0.032 C 
BRANCH  82  83
ATOM     83  CE  LYS     8      56.453  37.959  45.926  1.00  0.00     0.206 C 
BRANCH  83  84
ATOM     84  NZ  LYS     8      56.466  38.514  44.566  1.00  0.00    -0.064 N 
ATOM     85  HZ3 LYS     8      56.616  39.501  44.612  1.00 99.99     0.275 HD
ATOM     86  HZ1 LYS     8      57.201  38.090  44.036  1.00 99.99     0.275 HD
ATOM     87  HZ2 LYS     8      55.588  38.332  44.124  1.00 99.99     0.275 HD
ENDBRANCH  83  84
ENDBRANCH  82  83
ENDBRANCH  81  82
ENDBRANCH  80  81
ENDBRANCH  76  80
ENDBRANCH  74  76
ENDBRANCH  67  72
ENDBRANCH  64  67
ENDBRANCH  50  63
ENDBRANCH  47  50
ENDBRANCH  45  46
BRANCH  45  88
ATOM     88  CB  ILE     5      63.006  40.354  46.739  1.00  0.00     0.029 C 
ATOM     89  CG2 ILE     5      64.010  39.193  46.714  1.00  0.00     0.002 C 
BRANCH  88  90
ATOM     90  CG1 ILE     5      61.875  40.152  47.765  1.00  0.00     0.002 C 
ATOM     91  CD  ILE     5      61.207  38.772  47.701  1.00  0.00     0.000 C 
ENDBRANCH  88  90
ENDBRANCH  45  88
ENDBRANCH  42  45
ENDBRANCH  32  41
ENDBRANCH  29  32
ENDBRANCH  27  28
BRANCH  27  92
ATOM     92  CB  ILE     3      61.629  40.821  52.955  1.00  0.00     0.029 C 
ATOM     93  CG2 ILE     3      61.825  40.775  54.479  1.00  0.00     0.002 C 
BRANCH  92  94
ATOM     94  CG1 ILE     3      60.964  39.524  52.458  1.00  0.00     0.002 C 
ATOM     95  CD  ILE     3      61.740  38.782  51.358  1.00  0.00     0.000 C 
ENDBRANCH  92  94
ENDBRANCH  27  92
ENDBRANCH  25  27
ENDBRANCH  10  23
ENDBRANCH   8  10
ENDBRANCH   5   6
BRANCH   5  96
ATOM     96  CB  ILE     1      56.097  39.143  55.905  1.00  0.00     0.037 C 
ATOM     97  CG2 ILE     1      55.421  38.661  57.197  1.00  0.00     0.002 C 
BRANCH  96  98
ATOM     98  CG1 ILE     1      57.253  38.227  55.452  1.00  0.00     0.002 C 
ATOM     99  CD  ILE     1      58.611  38.935  55.376  1.00  0.00     0.000 C 
ENDBRANCH  96  98
ENDBRANCH   5  96
ENDBRANCH   1   5
TORSDOF 42
ENDMDL
MODEL 9
REMARK VINA RESULT:      -4.5      2.818     11.046
REMARK WARNING: 32 MAX_TORS EXCEEDED!!!
REMARK  42 active torsions:
REMARK  status: ('A' for Active; 'I' for Inactive)
REMARK    1  A    between atoms: N_1  and  CA_2 
REMARK    2  A    between atoms: CA_2  and  C_3 
REMARK    3  A    between atoms: CA_2  and  CB_5 
REMARK       I    between atoms: C_3  and  N_12 
REMARK    4  A    between atoms: CB_5  and  CG1_6 
REMARK    5  A    between atoms: N_12  and  CA_13 
REMARK    6  A    between atoms: CA_13  and  CB_16 
REMARK    7  A    between atoms: CA_13  and  C_14 
REMARK       I    between atoms: C_14  and  N_29 
REMARK    8  A    between atoms: CB_16  and  CG_17 
REMARK    9  A    between atoms: CG_17  and  CD_18 
REMARK   10  A    between atoms: CD_18  and  NE_19 
REMARK       I    between atoms: NE_19  and  CZ_20 
REMARK       I    between atoms: CZ_20  and  NH2_22 
REMARK       I    between atoms: CZ_20  and  NH1_21 
REMARK   11  A    between atoms: N_29  and  CA_30 
REMARK   12  A    between atoms: CA_30  and  C_31 
REMARK   13  A    between atoms: CA_30  and  CB_33 
REMARK       I    between atoms: C_31  and  N_38 
REMARK   14  A    between atoms: CB_33  and  CG1_34 
REMARK   15  A    between atoms: N_38  and  CA_39 
REMARK   16  A    between atoms: CA_39  and  CB_42 
REMARK   17  A    between atoms: CA_39  and  C_40 
REMARK       I    between atoms: C_40  and  N_51 
REMARK   18  A    between atoms: CB_42  and  CG_43 
REMARK   19  A    between atoms: CG_43  and  CD_44 
REMARK   20  A    between atoms: CD_44  and  CE_45 
REMARK   21  A    between atoms: CE_45  and  NZ_46 
REMARK   22  A    between atoms: N_51  and  CA_52 
REMARK   23  A    between atoms: CA_52  and  C_53 
REMARK   24  A    between atoms: CA_52  and  CB_55 
REMARK       I    between atoms: C_53  and  N_60 
REMARK   25  A    between atoms: CB_55  and  CG1_56 
REMARK   26  A    between atoms: N_60  and  CA_61 
REMARK   27  A    between atoms: CA_61  and  CB_64 
REMARK   28  A    between atoms: CA_61  and  C_62 
REMARK       I    between atoms: C_62  and  N_77 
REMARK   29  A    between atoms: CB_64  and  CG_65 
REMARK   30  A    between atoms: CG_65  and  CD_66 
REMARK   31  A    between atoms: CD_66  and  NE_67 
REMARK       I    between atoms: NE_67  and  CZ_68 
REMARK       I    between atoms: CZ_68  and  NH1_69 
REMARK   32  A    between atoms: N_77  and  CA_78 
REMARK   33  A    between atoms: CA_78  and  CB_81 
REMARK   34  A    between atoms: CA_78  and  C_79 
REMARK       I    between atoms: C_79  and  N_86 
REMARK   35  A    between atoms: CB_81  and  CG1_82 
REMARK   36  A    between atoms: N_86  and  CA_87 
REMARK   37  A    between atoms: CA_87  and  C_88 
REMARK   38  A    between atoms: CA_87  and  CB_90 
REMARK   39  A    between atoms: CB_90  and  CG_91 
REMARK   40  A    between atoms: CG_91  and  CD_92 
REMARK   41  A    between atoms: CD_92  and  CE_93 
REMARK   42  A    between atoms: CE_93  and  NZ_94 
ROOT
ATOM      1  N   ILE     1      51.651  41.173  50.124  1.00  0.00    -0.058 N 
ATOM      2  H1  ILE     1      50.753  41.033  49.704  1.00 99.99     0.276 HD
ATOM      3  H2  ILE     1      51.568  41.811  50.875  1.00 99.99     0.276 HD
ATOM      4  H3  ILE     1      52.243  41.628  49.469  1.00 99.99     0.276 HD
ENDROOT
BRANCH   1   5
ATOM      5  CA  ILE     1      52.168  39.845  50.552  1.00  0.00     0.255 C 
BRANCH   5   6
ATOM      6  C   ILE     1      53.449  39.449  49.763  1.00  0.00     0.259 C 
ATOM      7  O   ILE     1      54.379  38.921  50.370  1.00  0.00    -0.271 OA
ATOM      8  N   ARG     2      53.544  39.754  48.460  1.00  0.00    -0.338 N 
ATOM      9  H   ARG     2      52.782  40.144  47.948  1.00 99.99     0.164 HD
BRANCH   8  10
ATOM     10  CA  ARG     2      54.740  39.432  47.636  1.00  0.00     0.159 C 
BRANCH  10  11
ATOM     11  CB  ARG     2      54.337  39.001  46.222  1.00  0.00     0.034 C 
BRANCH  11  12
ATOM     12  CG  ARG     2      54.955  37.668  45.787  1.00  0.00     0.027 C 
BRANCH  12  13
ATOM     13  CD  ARG     2      55.604  37.822  44.410  1.00  0.00     0.116 C 
BRANCH  13  14
ATOM     14  NE  ARG     2      57.041  38.121  44.539  1.00  0.00    -0.212 N 
ATOM     15  HE  ARG     2      57.595  37.395  44.944  1.00 99.99     0.178 HD
ATOM     16  CZ  ARG     2      57.645  39.267  44.211  1.00  0.00     0.666 C 
ATOM     17  NH2 ARG     2      58.965  39.380  44.312  1.00  0.00    -0.235 N 
ATOM     18  NH1 ARG     2      56.975  40.308  43.734  1.00  0.00    -0.235 N 
ATOM     19 1HH2 ARG     2      59.402  40.241  44.059  1.00 99.99     0.174 HD
ATOM     20 2HH2 ARG     2      59.517  38.617  44.637  1.00 99.99     0.174 HD
ATOM     21 2HH1 ARG     2      55.987  40.240  43.627  1.00 99.99     0.174 HD
ATOM     22 1HH1 ARG     2      57.453  41.152  43.494  1.00 99.99     0.174 HD
ENDBRANCH  13  14
ENDBRANCH  12  13
ENDBRANCH  11  12
ENDBRANCH  10  11
BRANCH  10  23
ATOM     23  C   ARG     2      55.804  40.547  47.534  1.00  0.00     0.251 C 
ATOM     24  O   ARG     2      56.025  41.096  46.457  1.00  0.00    -0.271 OA
ATOM     25  N   ILE     3      56.337  40.967  48.682  1.00  0.00    -0.338 N 
ATOM     26  H   ILE     3      55.970  40.664  49.556  1.00 99.99     0.164 HD
BRANCH  25  27
ATOM     27  CA  ILE     3      57.462  41.926  48.789  1.00  0.00     0.159 C 
BRANCH  27  28
ATOM     28  C   ILE     3      58.368  41.525  49.975  1.00  0.00     0.251 C 
ATOM     29  N   LYS     4      57.791  40.785  50.928  1.00  0.00    -0.338 N 
ATOM     30  H   LYS     4      56.836  40.517  50.839  1.00 99.99     0.164 HD
ATOM     31  O   ILE     3      59.562  41.818  49.949  1.00  0.00    -0.271 OA
BRANCH  29  32
ATOM     32  CA  LYS     4      58.414  40.326  52.197  1.00  0.00     0.159 C 
BRANCH  32  33
ATOM     33  CB  LYS     4      59.087  38.964  51.949  1.00  0.00     0.032 C 
BRANCH  33  34
ATOM     34  CG  LYS     4      58.680  37.861  52.932  1.00  0.00     0.004 C 
BRANCH  34  35
ATOM     35  CD  LYS     4      59.728  37.737  54.041  1.00  0.00     0.032 C 
BRANCH  35  36
ATOM     36  CE  LYS     4      59.292  38.458  55.320  1.00  0.00     0.206 C 
BRANCH  36  37
ATOM     37  NZ  LYS     4      57.828  38.591  55.385  1.00  0.00    -0.064 N 
ATOM     38  HZ1 LYS     4      57.539  38.624  56.342  1.00 99.99     0.275 HD
ATOM     39  HZ2 LYS     4      57.545  39.432  54.925  1.00 99.99     0.275 HD
ATOM     40  HZ3 LYS     4      57.399  37.806  54.937  1.00 99.99     0.275 HD
ENDBRANCH  36  37
ENDBRANCH  35  36
ENDBRANCH  34  35
ENDBRANCH  33  34
ENDBRANCH  32  33
BRANCH  32  41
ATOM     41  C   LYS     4      59.407  41.301  52.881  1.00  0.00     0.251 C 
ATOM     42  N   ILE     5      60.692  41.024  52.687  1.00  0.00    -0.338 N 
ATOM     43  H   ILE     5      60.957  40.195  52.183  1.00 99.99     0.164 HD
ATOM     44  O   LYS     4      59.037  42.280  53.529  1.00  0.00    -0.271 OA
BRANCH  42  45
ATOM     45  CA  ILE     5      61.827  41.823  53.197  1.00  0.00     0.159 C 
BRANCH  45  46
ATOM     46  C   ILE     5      62.084  43.039  52.296  1.00  0.00     0.251 C 
ATOM     47  N   ARG     6      62.486  42.754  51.063  1.00  0.00    -0.338 N 
ATOM     48  H   ARG     6      62.621  41.817  50.747  1.00 99.99     0.164 HD
ATOM     49  O   ILE     5      61.832  44.180  52.682  1.00  0.00    -0.271 OA
BRANCH  47  50
ATOM     50  CA  ARG     6      62.691  43.793  50.036  1.00  0.00     0.159 C 
BRANCH  50  51
ATOM     51  CB  ARG     6      63.701  44.846  50.504  1.00  0.00     0.034 C 
BRANCH  51  52
ATOM     52  CG  ARG     6      63.112  46.258  50.510  1.00  0.00     0.027 C 
BRANCH  52  53
ATOM     53  CD  ARG     6      63.640  47.057  49.320  1.00  0.00     0.116 C 
BRANCH  53  54
ATOM     54  NE  ARG     6      64.624  46.245  48.578  1.00  0.00    -0.212 N 
ATOM     55  CZ  ARG     6      65.947  46.421  48.550  1.00  0.00     0.666 C 
ATOM     56  NH1 ARG     6      66.546  47.386  49.238  1.00  0.00    -0.235 N 
ATOM     57  NH2 ARG     6      66.703  45.621  47.813  1.00  0.00    -0.235 N 
ATOM     58 2HH1 ARG     6      65.992  47.996  49.796  1.00 99.99     0.174 HD
ATOM     59 1HH1 ARG     6      67.539  47.492  49.199  1.00 99.99     0.174 HD
ATOM     60 2HH2 ARG     6      66.291  44.889  47.276  1.00 99.99     0.174 HD
ATOM     61 1HH2 ARG     6      67.692  45.758  47.797  1.00 99.99     0.174 HD
ATOM     62  HE  ARG     6      64.235  45.495  48.050  1.00 99.99     0.178 HD
ENDBRANCH  53  54
ENDBRANCH  52  53
ENDBRANCH  51  52
ENDBRANCH  50  51
BRANCH  50  63
ATOM     63  C   ARG     6      63.220  43.125  48.762  1.00  0.00     0.251 C 
ATOM     64  N   ILE     7      62.360  42.307  48.173  1.00  0.00    -0.338 N 
ATOM     65  H   ILE     7      61.417  42.207  48.498  1.00 99.99     0.164 HD
ATOM     66  O   ARG     6      64.386  43.274  48.402  1.00  0.00    -0.271 OA
BRANCH  64  67
ATOM     67  CA  ILE     7      62.687  41.539  46.957  1.00  0.00     0.159 C 
BRANCH  67  68
ATOM     68  CB  ILE     7      61.957  40.174  46.953  1.00  0.00     0.029 C 
ATOM     69  CG2 ILE     7      62.788  39.149  46.170  1.00  0.00     0.002 C 
BRANCH  68  70
ATOM     70  CG1 ILE     7      61.575  39.697  48.372  1.00  0.00     0.002 C 
ATOM     71  CD  ILE     7      60.907  38.317  48.425  1.00  0.00     0.000 C 
ENDBRANCH  68  70
ENDBRANCH  67  68
BRANCH  67  72
ATOM     72  C   ILE     7      62.397  42.356  45.686  1.00  0.00     0.251 C 
ATOM     73  O   ILE     7      63.215  43.159  45.241  1.00  0.00    -0.271 OA
ATOM     74  N   LYS     8      61.265  42.045  45.067  1.00  0.00    -0.336 N 
ATOM     75  H   LYS     8      60.746  41.225  45.305  1.00 99.99     0.164 HD
BRANCH  74  76
ATOM     76  CA  LYS     8      60.646  42.893  44.025  1.00  0.00     0.168 C 
BRANCH  76  77
ATOM     77  C   LYS     8      59.266  43.302  44.569  1.00  0.00     0.206 C 
ATOM     78  O   LYS     8      58.921  44.500  44.471  1.00 99.99    -0.646 OA
ATOM     79  OXT LYS     8      58.694  42.418  45.248  1.00 99.99    -0.646 OA
ENDBRANCH  76  77
BRANCH  76  80
ATOM     80  CB  LYS     8      60.381  42.094  42.744  1.00  0.00     0.033 C 
BRANCH  80  81
ATOM     81  CG  LYS     8      61.179  42.518  41.509  1.00  0.00     0.004 C 
BRANCH  81  82
ATOM     82  CD  LYS     8      62.011  41.317  41.061  1.00  0.00     0.032 C 
BRANCH  82  83
ATOM     83  CE  LYS     8      61.790  40.960  39.591  1.00  0.00     0.206 C 
BRANCH  83  84
ATOM     84  NZ  LYS     8      60.376  40.622  39.379  1.00  0.00    -0.064 N 
ATOM     85  HZ3 LYS     8      60.313  39.777  38.849  1.00 99.99     0.275 HD
ATOM     86  HZ1 LYS     8      59.923  40.496  40.262  1.00 99.99     0.275 HD
ATOM     87  HZ2 LYS     8      59.929  41.363  38.876  1.00 99.99     0.275 HD
ENDBRANCH  83  84
ENDBRANCH  82  83
ENDBRANCH  81  82
ENDBRANCH  80  81
ENDBRANCH  76  80
ENDBRANCH  74  76
ENDBRANCH  67  72
ENDBRANCH  64  67
ENDBRANCH  50  63
ENDBRANCH  47  50
ENDBRANCH  45  46
BRANCH  45  88
ATOM     88  CB  ILE     5      63.119  40.981  53.331  1.00  0.00     0.029 C 
ATOM     89  CG2 ILE     5      63.629  41.046  54.777  1.00  0.00     0.002 C 
BRANCH  88  90
ATOM     90  CG1 ILE     5      62.950  39.540  52.815  1.00  0.00     0.002 C 
ATOM     91  CD  ILE     5      63.320  38.458  53.838  1.00  0.00     0.000 C 
ENDBRANCH  88  90
ENDBRANCH  45  88
ENDBRANCH  42  45
ENDBRANCH  32  41
ENDBRANCH  29  32
ENDBRANCH  27  28
BRANCH  27  92
ATOM     92  CB  ILE     3      56.876  43.356  48.943  1.00  0.00     0.029 C 
ATOM     93  CG2 ILE     3      56.872  44.128  47.613  1.00  0.00     0.002 C 
BRANCH  92  94
ATOM     94  CG1 ILE     3      55.454  43.285  49.529  1.00  0.00     0.002 C 
ATOM     95  CD  ILE     3      55.360  43.582  51.034  1.00  0.00     0.000 C 
ENDBRANCH  92  94
ENDBRANCH  27  92
ENDBRANCH  25  27
ENDBRANCH  10  23
ENDBRANCH   8  10
ENDBRANCH   5   6
BRANCH   5  96
ATOM     96  CB  ILE     1      51.082  38.745  50.485  1.00  0.00     0.037 C 
ATOM     97  CG2 ILE     1      50.737  38.433  49.022  1.00  0.00     0.002 C 
BRANCH  96  98
ATOM     98  CG1 ILE     1      51.457  37.489  51.297  1.00  0.00     0.002 C 
ATOM     99  CD  ILE     1      51.682  37.759  52.790  1.00  0.00     0.000 C 
ENDBRANCH  96  98
ENDBRANCH   5  96
ENDBRANCH   1   5
TORSDOF 42
ENDMDL
