MODEL 1
REMARK VINA RESULT:      -4.8      0.000      0.000
REMARK WARNING: 32 MAX_TORS EXCEEDED!!!
REMARK  48 active torsions:
REMARK  status: ('A' for Active; 'I' for Inactive)
REMARK    1  A    between atoms: N_1  and  CA_2 
REMARK    2  A    between atoms: CA_2  and  C_3 
REMARK    3  A    between atoms: CA_2  and  CB_5 
REMARK       I    between atoms: C_3  and  N_20 
REMARK    4  A    between atoms: CB_5  and  CG_6 
REMARK    5  A    between atoms: CG_6  and  CD_7 
REMARK    6  A    between atoms: CD_7  and  NE_8 
REMARK       I    between atoms: NE_8  and  CZ_9 
REMARK       I    between atoms: CZ_9  and  NH2_11 
REMARK       I    between atoms: CZ_9  and  NH1_10 
REMARK    7  A    between atoms: N_20  and  CA_21 
REMARK    8  A    between atoms: CA_21  and  C_22 
REMARK    9  A    between atoms: CA_21  and  CB_24 
REMARK       I    between atoms: C_22  and  N_37 
REMARK   10  A    between atoms: CB_24  and  CG_25 
REMARK   11  A    between atoms: CG_25  and  CD_26 
REMARK   12  A    between atoms: CD_26  and  NE_27 
REMARK       I    between atoms: NE_27  and  CZ_28 
REMARK       I    between atoms: CZ_28  and  NH1_29 
REMARK       I    between atoms: CZ_28  and  NH2_30 
REMARK   13  A    between atoms: N_37  and  CA_38 
REMARK   14  A    between atoms: CA_38  and  C_39 
REMARK   15  A    between atoms: CA_38  and  CB_41 
REMARK       I    between atoms: C_39  and  N_54 
REMARK   16  A    between atoms: CB_41  and  CG_42 
REMARK   17  A    between atoms: CG_42  and  CD_43 
REMARK   18  A    between atoms: CD_43  and  NE_44 
REMARK       I    between atoms: NE_44  and  CZ_45 
REMARK       I    between atoms: CZ_45  and  NH1_46 
REMARK       I    between atoms: CZ_45  and  NH2_47 
REMARK   19  A    between atoms: N_54  and  CA_55 
REMARK   20  A    between atoms: CA_55  and  C_56 
REMARK   21  A    between atoms: CA_55  and  CB_58 
REMARK       I    between atoms: C_56  and  N_71 
REMARK   22  A    between atoms: CB_58  and  CG_59 
REMARK   23  A    between atoms: CG_59  and  CD_60 
REMARK   24  A    between atoms: CD_60  and  NE_61 
REMARK       I    between atoms: NE_61  and  CZ_62 
REMARK       I    between atoms: CZ_62  and  NH1_63 
REMARK       I    between atoms: CZ_62  and  NH2_64 
REMARK   25  A    between atoms: N_71  and  CA_72 
REMARK   26  A    between atoms: CA_72  and  C_73 
REMARK   27  A    between atoms: CA_72  and  CB_75 
REMARK       I    between atoms: C_73  and  N_88 
REMARK   28  A    between atoms: CB_75  and  CG_76 
REMARK   29  A    between atoms: CG_76  and  CD_77 
REMARK   30  A    between atoms: CD_77  and  NE_78 
REMARK       I    between atoms: NE_78  and  CZ_79 
REMARK       I    between atoms: CZ_79  and  NH1_80 
REMARK       I    between atoms: CZ_79  and  NH2_81 
REMARK   31  A    between atoms: N_88  and  CA_89 
REMARK   32  A    between atoms: CA_89  and  CB_92 
REMARK   33  A    between atoms: CA_89  and  C_90 
REMARK       I    between atoms: C_90  and  N_105 
REMARK   34  A    between atoms: CB_92  and  CG_93 
REMARK   35  A    between atoms: CG_93  and  CD_94 
REMARK   36  A    between atoms: CD_94  and  NE_95 
REMARK       I    between atoms: NE_95  and  CZ_96 
REMARK       I    between atoms: CZ_96  and  NH2_98 
REMARK       I    between atoms: CZ_96  and  NH1_97 
REMARK   37  A    between atoms: N_105  and  CA_106 
REMARK   38  A    between atoms: CA_106  and  C_107 
REMARK   39  A    between atoms: CA_106  and  CB_109 
REMARK       I    between atoms: C_107  and  N_122 
REMARK   40  A    between atoms: CB_109  and  CG_110 
REMARK   41  A    between atoms: CG_110  and  CD_111 
REMARK   42  A    between atoms: CD_111  and  NE_112 
REMARK       I    between atoms: NE_112  and  CZ_113 
REMARK       I    between atoms: CZ_113  and  NH2_115 
REMARK       I    between atoms: CZ_113  and  NH1_114 
REMARK   43  A    between atoms: N_122  and  CA_123 
REMARK   44  A    between atoms: CA_123  and  C_124 
REMARK   45  A    between atoms: CA_123  and  CB_126 
REMARK   46  A    between atoms: CB_126  and  CG_127 
REMARK   47  A    between atoms: CG_127  and  CD_128 
REMARK   48  A    between atoms: CD_128  and  NE_129 
REMARK       I    between atoms: NE_129  and  CZ_130 
REMARK       I    between atoms: CZ_130  and  NH1_131 
ROOT
ATOM      1  N   ARG     1      68.398  39.148  46.736  1.00  0.00    -0.058 N 
ATOM      2  H1  ARG     1      68.380  38.188  46.480  1.00 99.99     0.276 HD
ATOM      3  H2  ARG     1      68.563  39.709  45.944  1.00 99.99     0.276 HD
ATOM      4  H3  ARG     1      69.181  39.308  47.330  1.00 99.99     0.276 HD
ENDROOT
BRANCH   1   5
ATOM      5  CA  ARG     1      67.114  39.502  47.419  1.00  0.00     0.255 C 
BRANCH   5   6
ATOM      6  C   ARG     1      66.298  40.512  46.574  1.00  0.00     0.259 C 
ATOM      7  N   ARG     2      66.921  41.249  45.638  1.00  0.00    -0.338 N 
ATOM      8  H   ARG     2      67.912  41.178  45.515  1.00 99.99     0.164 HD
ATOM      9  O   ARG     1      65.072  40.443  46.657  1.00  0.00    -0.271 OA
BRANCH   7  10
ATOM     10  CA  ARG     2      66.293  42.255  44.738  1.00  0.00     0.159 C 
BRANCH  10  11
ATOM     11  C   ARG     2      65.046  43.006  45.259  1.00  0.00     0.251 C 
ATOM     12  N   ARG     3      63.846  42.456  45.019  1.00  0.00    -0.338 N 
ATOM     13  H   ARG     3      63.758  41.701  44.372  1.00 99.99     0.164 HD
ATOM     14  O   ARG     2      65.202  43.980  45.998  1.00  0.00    -0.271 OA
BRANCH  12  15
ATOM     15  CA  ARG     3      62.543  42.965  45.511  1.00  0.00     0.159 C 
BRANCH  15  16
ATOM     16  C   ARG     3      61.944  42.362  46.793  1.00  0.00     0.251 C 
ATOM     17  N   ARG     4      61.761  43.157  47.852  1.00  0.00    -0.338 N 
ATOM     18  H   ARG     4      62.072  44.115  47.858  1.00 99.99     0.164 HD
ATOM     19  O   ARG     3      61.792  41.140  46.869  1.00  0.00    -0.271 OA
BRANCH  17  20
ATOM     20  CA  ARG     4      61.040  42.699  49.050  1.00  0.00     0.159 C 
BRANCH  20  21
ATOM     21  C   ARG     4      59.522  42.747  48.865  1.00  0.00     0.251 C 
ATOM     22  O   ARG     4      58.814  42.143  49.678  1.00  0.00    -0.271 OA
ATOM     23  N   ARG     5      59.091  43.082  47.640  1.00  0.00    -0.338 N 
ATOM     24  H   ARG     5      59.763  43.261  46.922  1.00 99.99     0.164 HD
BRANCH  23  25
ATOM     25  CA  ARG     5      57.692  43.198  47.179  1.00  0.00     0.159 C 
BRANCH  25  26
ATOM     26  C   ARG     5      56.608  43.641  48.184  1.00  0.00     0.251 C 
ATOM     27  N   ARG     6      55.903  42.677  48.777  1.00  0.00    -0.338 N 
ATOM     28  H   ARG     6      55.984  41.733  48.460  1.00 99.99     0.164 HD
ATOM     29  O   ARG     5      56.311  44.837  48.298  1.00  0.00    -0.271 OA
BRANCH  27  30
ATOM     30  CA  ARG     6      54.923  42.882  49.861  1.00  0.00     0.159 C 
BRANCH  30  31
ATOM     31  CB  ARG     6      53.971  41.679  49.810  1.00  0.00     0.034 C 
BRANCH  31  32
ATOM     32  CG  ARG     6      54.304  40.718  48.664  1.00  0.00     0.027 C 
BRANCH  32  33
ATOM     33  CD  ARG     6      53.690  39.326  48.873  1.00  0.00     0.116 C 
BRANCH  33  34
ATOM     34  NE  ARG     6      54.544  38.238  48.348  1.00  0.00    -0.212 N 
ATOM     35  HE  ARG     6      55.328  38.016  48.920  1.00 99.99     0.178 HD
ATOM     36  CZ  ARG     6      54.360  37.497  47.245  1.00  0.00     0.666 C 
ATOM     37  NH2 ARG     6      55.314  36.666  46.847  1.00  0.00    -0.235 N 
ATOM     38  NH1 ARG     6      53.302  37.628  46.459  1.00  0.00    -0.235 N 
ATOM     39 1HH2 ARG     6      55.167  36.118  46.028  1.00 99.99     0.174 HD
ATOM     40 2HH2 ARG     6      56.171  36.599  47.352  1.00 99.99     0.174 HD
ATOM     41 2HH1 ARG     6      52.581  38.268  46.724  1.00 99.99     0.174 HD
ATOM     42 1HH1 ARG     6      53.185  37.045  45.661  1.00 99.99     0.174 HD
ENDBRANCH  33  34
ENDBRANCH  32  33
ENDBRANCH  31  32
ENDBRANCH  30  31
BRANCH  30  43
ATOM     43  C   ARG     6      55.606  43.026  51.250  1.00  0.00     0.251 C 
ATOM     44  N   ARG     7      56.203  41.932  51.715  1.00  0.00    -0.338 N 
ATOM     45  H   ARG     7      56.010  41.065  51.259  1.00 99.99     0.164 HD
ATOM     46  O   ARG     6      55.524  44.051  51.922  1.00  0.00    -0.271 OA
BRANCH  44  47
ATOM     47  CA  ARG     7      56.937  41.801  53.000  1.00  0.00     0.159 C 
BRANCH  47  48
ATOM     48  C   ARG     7      58.441  42.122  52.888  1.00  0.00     0.251 C 
ATOM     49  O   ARG     7      58.877  43.237  53.164  1.00  0.00    -0.271 OA
ATOM     50  N   ARG     8      59.203  41.043  52.702  1.00  0.00    -0.336 N 
ATOM     51  H   ARG     8      58.751  40.153  52.656  1.00 99.99     0.164 HD
BRANCH  50  52
ATOM     52  CA  ARG     8      60.671  40.916  52.567  1.00  0.00     0.168 C 
BRANCH  52  53
ATOM     53  C   ARG     8      60.924  39.477  52.085  1.00  0.00     0.206 C 
ATOM     54  OXT ARG     8      61.183  38.641  52.987  1.00 99.99    -0.646 OA
ATOM     55  O   ARG     8      60.724  39.214  50.877  1.00 99.99    -0.646 OA
ENDBRANCH  52  53
BRANCH  52  56
ATOM     56  CB  ARG     8      61.401  40.960  53.917  1.00  0.00     0.035 C 
BRANCH  56  57
ATOM     57  CG  ARG     8      62.649  41.826  54.073  1.00  0.00     0.027 C 
BRANCH  57  58
ATOM     58  CD  ARG     8      63.653  40.962  54.831  1.00  0.00     0.116 C 
BRANCH  58  59
ATOM     59  NE  ARG     8      63.689  39.576  54.334  1.00  0.00    -0.212 N 
ATOM     60  HE  ARG     8      62.979  38.971  54.683  1.00 99.99     0.178 HD
ATOM     61  CZ  ARG     8      64.582  39.101  53.460  1.00  0.00     0.666 C 
ATOM     62  NH2 ARG     8      64.433  37.886  52.961  1.00  0.00    -0.235 N 
ATOM     63  NH1 ARG     8      65.561  39.859  52.978  1.00  0.00    -0.235 N 
ATOM     64 2HH2 ARG     8      63.654  37.323  53.229  1.00 99.99     0.174 HD
ATOM     65 1HH2 ARG     8      65.101  37.539  52.303  1.00 99.99     0.174 HD
ATOM     66 1HH1 ARG     8      66.217  39.492  52.324  1.00 99.99     0.174 HD
ATOM     67 2HH1 ARG     8      65.626  40.808  53.286  1.00 99.99     0.174 HD
ENDBRANCH  58  59
ENDBRANCH  57  58
ENDBRANCH  56  57
ENDBRANCH  52  56
ENDBRANCH  50  52
ENDBRANCH  47  48
BRANCH  47  68
ATOM     68  CB  ARG     7      56.843  40.368  53.544  1.00  0.00     0.034 C 
BRANCH  68  69
ATOM     69  CG  ARG     7      56.239  40.235  54.942  1.00  0.00     0.027 C 
BRANCH  69  70
ATOM     70  CD  ARG     7      57.378  40.292  55.960  1.00  0.00     0.116 C 
BRANCH  70  71
ATOM     71  NE  ARG     7      58.362  39.226  55.714  1.00  0.00    -0.212 N 
ATOM     72  HE  ARG     7      58.073  38.526  55.065  1.00 99.99     0.178 HD
ATOM     73  CZ  ARG     7      59.549  39.105  56.320  1.00  0.00     0.666 C 
ATOM     74  NH2 ARG     7      60.420  38.191  55.919  1.00  0.00    -0.235 N 
ATOM     75  NH1 ARG     7      59.935  39.945  57.272  1.00  0.00    -0.235 N 
ATOM     76 2HH2 ARG     7      60.200  37.580  55.160  1.00 99.99     0.174 HD
ATOM     77 1HH2 ARG     7      61.303  38.121  56.379  1.00 99.99     0.174 HD
ATOM     78 1HH1 ARG     7      60.822  39.848  57.713  1.00 99.99     0.174 HD
ATOM     79 2HH1 ARG     7      59.308  40.677  57.542  1.00 99.99     0.174 HD
ENDBRANCH  70  71
ENDBRANCH  69  70
ENDBRANCH  68  69
ENDBRANCH  47  68
ENDBRANCH  44  47
ENDBRANCH  30  43
ENDBRANCH  27  30
ENDBRANCH  25  26
BRANCH  25  80
ATOM     80  CB  ARG     5      57.253  41.851  46.582  1.00  0.00     0.034 C 
BRANCH  80  81
ATOM     81  CG  ARG     5      58.396  40.962  46.103  1.00  0.00     0.027 C 
BRANCH  81  82
ATOM     82  CD  ARG     5      58.206  39.578  46.727  1.00  0.00     0.116 C 
BRANCH  82  83
ATOM     83  NE  ARG     5      57.781  39.673  48.133  1.00  0.00    -0.212 N 
ATOM     84  CZ  ARG     5      58.059  38.779  49.092  1.00  0.00     0.666 C 
ATOM     85  NH1 ARG     5      58.833  37.726  48.865  1.00  0.00    -0.235 N 
ATOM     86  NH2 ARG     5      57.442  38.842  50.261  1.00  0.00    -0.235 N 
ATOM     87 2HH1 ARG     5      59.242  37.615  47.958  1.00 99.99     0.174 HD
ATOM     88 1HH1 ARG     5      59.026  37.071  49.590  1.00 99.99     0.174 HD
ATOM     89 2HH2 ARG     5      56.764  39.553  50.442  1.00 99.99     0.174 HD
ATOM     90 1HH2 ARG     5      57.652  38.164  50.962  1.00 99.99     0.174 HD
ATOM     91  HE  ARG     5      57.314  40.516  48.386  1.00 99.99     0.178 HD
ENDBRANCH  82  83
ENDBRANCH  81  82
ENDBRANCH  80  81
ENDBRANCH  25  80
ENDBRANCH  23  25
ENDBRANCH  20  21
BRANCH  20  92
ATOM     92  CB  ARG     4      61.525  43.376  50.348  1.00  0.00     0.034 C 
BRANCH  92  93
ATOM     93  CG  ARG     4      62.906  43.994  50.106  1.00  0.00     0.027 C 
BRANCH  93  94
ATOM     94  CD  ARG     4      62.947  45.529  50.152  1.00  0.00     0.116 C 
BRANCH  94  95
ATOM     95  NE  ARG     4      64.268  46.056  50.529  1.00  0.00    -0.212 N 
ATOM     96  CZ  ARG     4      65.317  46.226  49.709  1.00  0.00     0.666 C 
ATOM     97  NH1 ARG     4      65.255  45.939  48.417  1.00  0.00    -0.235 N 
ATOM     98  NH2 ARG     4      66.467  46.686  50.182  1.00  0.00    -0.235 N 
ATOM     99 2HH1 ARG     4      64.399  45.572  48.045  1.00 99.99     0.174 HD
ATOM    100 1HH1 ARG     4      66.044  46.073  47.825  1.00 99.99     0.174 HD
ATOM    101 2HH2 ARG     4      66.572  46.894  51.153  1.00 99.99     0.174 HD
ATOM    102 1HH2 ARG     4      67.238  46.807  49.561  1.00 99.99     0.174 HD
ATOM    103  HE  ARG     4      64.393  46.230  51.503  1.00 99.99     0.178 HD
ENDBRANCH  94  95
ENDBRANCH  93  94
ENDBRANCH  92  93
ENDBRANCH  20  92
ENDBRANCH  17  20
ENDBRANCH  15  16
BRANCH  15 104
ATOM    104  CB  ARG     3      61.463  42.881  44.419  1.00  0.00     0.034 C 
BRANCH 104 105
ATOM    105  CG  ARG     3      62.038  42.665  43.017  1.00  0.00     0.027 C 
BRANCH 105 106
ATOM    106  CD  ARG     3      61.049  41.975  42.066  1.00  0.00     0.116 C 
BRANCH 106 107
ATOM    107  NE  ARG     3      59.741  41.697  42.690  1.00  0.00    -0.212 N 
ATOM    108  CZ  ARG     3      58.538  41.922  42.147  1.00  0.00     0.666 C 
ATOM    109  NH1 ARG     3      58.404  42.414  40.922  1.00  0.00    -0.235 N 
ATOM    110  NH2 ARG     3      57.433  41.693  42.842  1.00  0.00    -0.235 N 
ATOM    111 2HH1 ARG     3      59.228  42.639  40.402  1.00 99.99     0.174 HD
ATOM    112 1HH1 ARG     3      57.501  42.574  40.534  1.00 99.99     0.174 HD
ATOM    113 1HH2 ARG     3      56.545  41.866  42.421  1.00 99.99     0.174 HD
ATOM    114 2HH2 ARG     3      57.480  41.373  43.787  1.00 99.99     0.174 HD
ATOM    115  HE  ARG     3      59.784  41.373  43.634  1.00 99.99     0.178 HD
ENDBRANCH 106 107
ENDBRANCH 105 106
ENDBRANCH 104 105
ENDBRANCH  15 104
ENDBRANCH  12  15
ENDBRANCH  10  11
BRANCH  10 116
ATOM    116  CB  ARG     2      66.057  41.677  43.327  1.00  0.00     0.034 C 
BRANCH 116 117
ATOM    117  CG  ARG     2      66.539  40.226  43.166  1.00  0.00     0.027 C 
BRANCH 117 118
ATOM    118  CD  ARG     2      65.452  39.331  42.548  1.00  0.00     0.116 C 
BRANCH 118 119
ATOM    119  NE  ARG     2      64.119  39.630  43.099  1.00  0.00    -0.212 N 
ATOM    120  CZ  ARG     2      63.531  39.037  44.148  1.00  0.00     0.666 C 
ATOM    121  NH1 ARG     2      64.141  38.106  44.873  1.00  0.00    -0.235 N 
ATOM    122  NH2 ARG     2      62.258  39.280  44.437  1.00  0.00    -0.235 N 
ATOM    123 2HH1 ARG     2      65.081  37.852  44.648  1.00 99.99     0.174 HD
ATOM    124 1HH1 ARG     2      63.674  37.678  45.642  1.00 99.99     0.174 HD
ATOM    125 1HH2 ARG     2      61.834  38.820  45.214  1.00 99.99     0.174 HD
ATOM    126 2HH2 ARG     2      61.719  39.913  43.884  1.00 99.99     0.174 HD
ATOM    127  HE  ARG     2      63.638  40.397  42.674  1.00 99.99     0.178 HD
ENDBRANCH 118 119
ENDBRANCH 117 118
ENDBRANCH 116 117
ENDBRANCH  10 116
ENDBRANCH   7  10
ENDBRANCH   5   6
BRANCH   5 128
ATOM    128  CB  ARG     1      67.351  39.909  48.883  1.00  0.00     0.042 C 
BRANCH 128 129
ATOM    129  CG  ARG     1      66.666  38.949  49.873  1.00  0.00     0.027 C 
BRANCH 129 130
ATOM    130  CD  ARG     1      65.685  37.971  49.205  1.00  0.00     0.116 C 
BRANCH 130 131
ATOM    131  NE  ARG     1      64.388  38.595  48.896  1.00  0.00    -0.212 N 
ATOM    132  CZ  ARG     1      63.236  37.966  48.623  1.00  0.00     0.666 C 
ATOM    133  NH2 ARG     1      62.133  38.670  48.411  1.00  0.00    -0.235 N 
ATOM    134  NH1 ARG     1      63.131  36.643  48.590  1.00  0.00    -0.235 N 
ATOM    135 1HH2 ARG     1      61.277  38.197  48.216  1.00 99.99     0.174 HD
ATOM    136 2HH2 ARG     1      62.153  39.669  48.441  1.00 99.99     0.174 HD
ATOM    137 1HH1 ARG     1      62.256  36.210  48.391  1.00 99.99     0.174 HD
ATOM    138 2HH1 ARG     1      63.943  36.084  48.761  1.00 99.99     0.174 HD
ATOM    139  HE  ARG     1      64.402  39.589  48.829  1.00 99.99     0.178 HD
ENDBRANCH 130 131
ENDBRANCH 129 130
ENDBRANCH 128 129
ENDBRANCH   5 128
ENDBRANCH   1   5
TORSDOF 48
ENDMDL
MODEL 2
REMARK VINA RESULT:      -4.7      2.202      8.652
REMARK WARNING: 32 MAX_TORS EXCEEDED!!!
REMARK  48 active torsions:
REMARK  status: ('A' for Active; 'I' for Inactive)
REMARK    1  A    between atoms: N_1  and  CA_2 
REMARK    2  A    between atoms: CA_2  and  C_3 
REMARK    3  A    between atoms: CA_2  and  CB_5 
REMARK       I    between atoms: C_3  and  N_20 
REMARK    4  A    between atoms: CB_5  and  CG_6 
REMARK    5  A    between atoms: CG_6  and  CD_7 
REMARK    6  A    between atoms: CD_7  and  NE_8 
REMARK       I    between atoms: NE_8  and  CZ_9 
REMARK       I    between atoms: CZ_9  and  NH2_11 
REMARK       I    between atoms: CZ_9  and  NH1_10 
REMARK    7  A    between atoms: N_20  and  CA_21 
REMARK    8  A    between atoms: CA_21  and  C_22 
REMARK    9  A    between atoms: CA_21  and  CB_24 
REMARK       I    between atoms: C_22  and  N_37 
REMARK   10  A    between atoms: CB_24  and  CG_25 
REMARK   11  A    between atoms: CG_25  and  CD_26 
REMARK   12  A    between atoms: CD_26  and  NE_27 
REMARK       I    between atoms: NE_27  and  CZ_28 
REMARK       I    between atoms: CZ_28  and  NH1_29 
REMARK       I    between atoms: CZ_28  and  NH2_30 
REMARK   13  A    between atoms: N_37  and  CA_38 
REMARK   14  A    between atoms: CA_38  and  C_39 
REMARK   15  A    between atoms: CA_38  and  CB_41 
REMARK       I    between atoms: C_39  and  N_54 
REMARK   16  A    between atoms: CB_41  and  CG_42 
REMARK   17  A    between atoms: CG_42  and  CD_43 
REMARK   18  A    between atoms: CD_43  and  NE_44 
REMARK       I    between atoms: NE_44  and  CZ_45 
REMARK       I    between atoms: CZ_45  and  NH1_46 
REMARK       I    between atoms: CZ_45  and  NH2_47 
REMARK   19  A    between atoms: N_54  and  CA_55 
REMARK   20  A    between atoms: CA_55  and  C_56 
REMARK   21  A    between atoms: CA_55  and  CB_58 
REMARK       I    between atoms: C_56  and  N_71 
REMARK   22  A    between atoms: CB_58  and  CG_59 
REMARK   23  A    between atoms: CG_59  and  CD_60 
REMARK   24  A    between atoms: CD_60  and  NE_61 
REMARK       I    between atoms: NE_61  and  CZ_62 
REMARK       I    between atoms: CZ_62  and  NH1_63 
REMARK       I    between atoms: CZ_62  and  NH2_64 
REMARK   25  A    between atoms: N_71  and  CA_72 
REMARK   26  A    between atoms: CA_72  and  C_73 
REMARK   27  A    between atoms: CA_72  and  CB_75 
REMARK       I    between atoms: C_73  and  N_88 
REMARK   28  A    between atoms: CB_75  and  CG_76 
REMARK   29  A    between atoms: CG_76  and  CD_77 
REMARK   30  A    between atoms: CD_77  and  NE_78 
REMARK       I    between atoms: NE_78  and  CZ_79 
REMARK       I    between atoms: CZ_79  and  NH1_80 
REMARK       I    between atoms: CZ_79  and  NH2_81 
REMARK   31  A    between atoms: N_88  and  CA_89 
REMARK   32  A    between atoms: CA_89  and  CB_92 
REMARK   33  A    between atoms: CA_89  and  C_90 
REMARK       I    between atoms: C_90  and  N_105 
REMARK   34  A    between atoms: CB_92  and  CG_93 
REMARK   35  A    between atoms: CG_93  and  CD_94 
REMARK   36  A    between atoms: CD_94  and  NE_95 
REMARK       I    between atoms: NE_95  and  CZ_96 
REMARK       I    between atoms: CZ_96  and  NH2_98 
REMARK       I    between atoms: CZ_96  and  NH1_97 
REMARK   37  A    between atoms: N_105  and  CA_106 
REMARK   38  A    between atoms: CA_106  and  C_107 
REMARK   39  A    between atoms: CA_106  and  CB_109 
REMARK       I    between atoms: C_107  and  N_122 
REMARK   40  A    between atoms: CB_109  and  CG_110 
REMARK   41  A    between atoms: CG_110  and  CD_111 
REMARK   42  A    between atoms: CD_111  and  NE_112 
REMARK       I    between atoms: NE_112  and  CZ_113 
REMARK       I    between atoms: CZ_113  and  NH2_115 
REMARK       I    between atoms: CZ_113  and  NH1_114 
REMARK   43  A    between atoms: N_122  and  CA_123 
REMARK   44  A    between atoms: CA_123  and  C_124 
REMARK   45  A    between atoms: CA_123  and  CB_126 
REMARK   46  A    between atoms: CB_126  and  CG_127 
REMARK   47  A    between atoms: CG_127  and  CD_128 
REMARK   48  A    between atoms: CD_128  and  NE_129 
REMARK       I    between atoms: NE_129  and  CZ_130 
REMARK       I    between atoms: CZ_130  and  NH1_131 
ROOT
ATOM      1  N   ARG     1      58.803  42.756  41.617  1.00  0.00    -0.058 N 
ATOM      2  H1  ARG     1      58.162  43.248  42.197  1.00 99.99     0.276 HD
ATOM      3  H2  ARG     1      59.724  42.891  41.935  1.00 99.99     0.276 HD
ATOM      4  H3  ARG     1      58.785  43.157  40.706  1.00 99.99     0.276 HD
ENDROOT
BRANCH   1   5
ATOM      5  CA  ARG     1      58.426  41.308  41.582  1.00  0.00     0.255 C 
BRANCH   5   6
ATOM      6  C   ARG     1      58.126  40.779  43.007  1.00  0.00     0.259 C 
ATOM      7  N   ARG     2      56.875  40.405  43.325  1.00  0.00    -0.338 N 
ATOM      8  H   ARG     2      56.132  40.506  42.661  1.00 99.99     0.164 HD
ATOM      9  O   ARG     1      59.096  40.529  43.722  1.00  0.00    -0.271 OA
BRANCH   7  10
ATOM     10  CA  ARG     2      56.415  39.871  44.637  1.00  0.00     0.159 C 
BRANCH  10  11
ATOM     11  C   ARG     2      56.997  40.513  45.917  1.00  0.00     0.251 C 
ATOM     12  N   ARG     3      57.242  41.832  45.894  1.00  0.00    -0.338 N 
ATOM     13  H   ARG     3      57.226  42.332  45.030  1.00 99.99     0.164 HD
ATOM     14  O   ARG     2      57.067  39.836  46.945  1.00  0.00    -0.271 OA
BRANCH  12  15
ATOM     15  CA  ARG     3      57.709  42.649  47.040  1.00  0.00     0.159 C 
BRANCH  15  16
ATOM     16  C   ARG     3      56.679  43.150  48.066  1.00  0.00     0.251 C 
ATOM     17  N   ARG     4      56.041  42.252  48.825  1.00  0.00    -0.338 N 
ATOM     18  H   ARG     4      56.162  41.261  48.691  1.00 99.99     0.164 HD
ATOM     19  O   ARG     3      56.352  44.339  48.060  1.00  0.00    -0.271 OA
BRANCH  17  20
ATOM     20  CA  ARG     4      55.173  42.659  49.941  1.00  0.00     0.159 C 
BRANCH  20  21
ATOM     21  C   ARG     4      55.906  42.634  51.283  1.00  0.00     0.251 C 
ATOM     22  O   ARG     4      55.928  43.669  51.958  1.00  0.00    -0.271 OA
ATOM     23  N   ARG     5      56.801  41.647  51.444  1.00  0.00    -0.338 N 
ATOM     24  H   ARG     5      56.954  41.005  50.694  1.00 99.99     0.164 HD
BRANCH  23  25
ATOM     25  CA  ARG     5      57.651  41.387  52.625  1.00  0.00     0.159 C 
BRANCH  25  26
ATOM     26  C   ARG     5      58.955  42.193  52.800  1.00  0.00     0.251 C 
ATOM     27  N   ARG     6      60.098  41.555  52.544  1.00  0.00    -0.338 N 
ATOM     28  H   ARG     6      60.097  40.567  52.399  1.00 99.99     0.164 HD
ATOM     29  O   ARG     5      58.931  43.321  53.307  1.00  0.00    -0.271 OA
BRANCH  27  30
ATOM     30  CA  ARG     6      61.435  42.181  52.520  1.00  0.00     0.159 C 
BRANCH  30  31
ATOM     31  CB  ARG     6      62.360  41.242  53.306  1.00  0.00     0.034 C 
BRANCH  31  32
ATOM     32  CG  ARG     6      61.823  39.808  53.369  1.00  0.00     0.027 C 
BRANCH  32  33
ATOM     33  CD  ARG     6      62.736  38.811  52.643  1.00  0.00     0.116 C 
BRANCH  33  34
ATOM     34  NE  ARG     6      63.768  39.474  51.816  1.00  0.00    -0.212 N 
ATOM     35  HE  ARG     6      63.424  40.208  51.237  1.00 99.99     0.178 HD
ATOM     36  CZ  ARG     6      65.089  39.245  51.795  1.00  0.00     0.666 C 
ATOM     37  NH2 ARG     6      65.842  39.832  50.874  1.00  0.00    -0.235 N 
ATOM     38  NH1 ARG     6      65.680  38.367  52.592  1.00  0.00    -0.235 N 
ATOM     39 1HH2 ARG     6      66.824  39.657  50.868  1.00 99.99     0.174 HD
ATOM     40 2HH2 ARG     6      65.432  40.430  50.191  1.00 99.99     0.174 HD
ATOM     41 2HH1 ARG     6      65.128  37.890  53.277  1.00 99.99     0.174 HD
ATOM     42 1HH1 ARG     6      66.666  38.238  52.566  1.00 99.99     0.174 HD
ENDBRANCH  33  34
ENDBRANCH  32  33
ENDBRANCH  31  32
ENDBRANCH  30  31
BRANCH  30  43
ATOM     43  C   ARG     6      61.944  42.420  51.071  1.00  0.00     0.251 C 
ATOM     44  N   ARG     7      61.100  43.053  50.260  1.00  0.00    -0.338 N 
ATOM     45  H   ARG     7      60.151  43.150  50.556  1.00 99.99     0.164 HD
ATOM     46  O   ARG     6      63.016  41.977  50.666  1.00  0.00    -0.271 OA
BRANCH  44  47
ATOM     47  CA  ARG     7      61.340  43.419  48.840  1.00  0.00     0.159 C 
BRANCH  47  48
ATOM     48  C   ARG     7      61.722  42.219  47.949  1.00  0.00     0.251 C 
ATOM     49  O   ARG     7      60.862  41.533  47.401  1.00  0.00    -0.271 OA
ATOM     50  N   ARG     8      63.023  42.164  47.660  1.00  0.00    -0.336 N 
ATOM     51  H   ARG     8      63.615  42.879  48.029  1.00 99.99     0.164 HD
BRANCH  50  52
ATOM     52  CA  ARG     8      63.782  41.202  46.832  1.00  0.00     0.168 C 
BRANCH  52  53
ATOM     53  C   ARG     8      64.482  40.257  47.824  1.00  0.00     0.206 C 
ATOM     54  OXT ARG     8      63.724  39.493  48.472  1.00 99.99    -0.646 OA
ATOM     55  O   ARG     8      65.734  40.213  47.818  1.00 99.99    -0.646 OA
ENDBRANCH  52  53
BRANCH  52  56
ATOM     56  CB  ARG     8      64.957  41.851  46.087  1.00  0.00     0.035 C 
BRANCH  56  57
ATOM     57  CG  ARG     8      64.893  43.331  45.719  1.00  0.00     0.027 C 
BRANCH  57  58
ATOM     58  CD  ARG     8      66.221  43.925  46.178  1.00  0.00     0.116 C 
BRANCH  58  59
ATOM     59  NE  ARG     8      67.379  43.265  45.551  1.00  0.00    -0.212 N 
ATOM     60  HE  ARG     8      67.478  43.403  44.570  1.00 99.99     0.178 HD
ATOM     61  CZ  ARG     8      68.283  42.528  46.204  1.00  0.00     0.666 C 
ATOM     62  NH2 ARG     8      69.369  42.110  45.576  1.00  0.00    -0.235 N 
ATOM     63  NH1 ARG     8      68.188  42.298  47.510  1.00  0.00    -0.235 N 
ATOM     64 2HH2 ARG     8      69.520  42.346  44.619  1.00 99.99     0.174 HD
ATOM     65 1HH2 ARG     8      70.045  41.565  46.072  1.00 99.99     0.174 HD
ATOM     66 1HH1 ARG     8      68.872  41.750  47.983  1.00 99.99     0.174 HD
ATOM     67 2HH1 ARG     8      67.414  42.687  48.008  1.00 99.99     0.174 HD
ENDBRANCH  58  59
ENDBRANCH  57  58
ENDBRANCH  56  57
ENDBRANCH  52  56
ENDBRANCH  50  52
ENDBRANCH  47  48
BRANCH  47  68
ATOM     68  CB  ARG     7      62.492  44.428  48.720  1.00  0.00     0.034 C 
BRANCH  68  69
ATOM     69  CG  ARG     7      62.345  45.694  49.563  1.00  0.00     0.027 C 
BRANCH  69  70
ATOM     70  CD  ARG     7      63.599  45.840  50.426  1.00  0.00     0.116 C 
BRANCH  70  71
ATOM     71  NE  ARG     7      64.528  46.824  49.848  1.00  0.00    -0.212 N 
ATOM     72  HE  ARG     7      64.134  47.723  49.669  1.00 99.99     0.178 HD
ATOM     73  CZ  ARG     7      65.801  46.590  49.508  1.00  0.00     0.666 C 
ATOM     74  NH2 ARG     7      66.592  47.583  49.132  1.00  0.00    -0.235 N 
ATOM     75  NH1 ARG     7      66.342  45.382  49.620  1.00  0.00    -0.235 N 
ATOM     76 2HH2 ARG     7      66.247  48.520  49.097  1.00 99.99     0.174 HD
ATOM     77 1HH2 ARG     7      67.541  47.389  48.889  1.00 99.99     0.174 HD
ATOM     78 1HH1 ARG     7      67.290  45.221  49.368  1.00 99.99     0.174 HD
ATOM     79 2HH1 ARG     7      65.769  44.635  49.960  1.00 99.99     0.174 HD
ENDBRANCH  70  71
ENDBRANCH  69  70
ENDBRANCH  68  69
ENDBRANCH  47  68
ENDBRANCH  44  47
ENDBRANCH  30  43
ENDBRANCH  27  30
ENDBRANCH  25  26
BRANCH  25  80
ATOM     80  CB  ARG     5      58.017  39.894  52.652  1.00  0.00     0.034 C 
BRANCH  80  81
ATOM     81  CG  ARG     5      56.861  38.959  52.993  1.00  0.00     0.027 C 
BRANCH  81  82
ATOM     82  CD  ARG     5      57.121  37.621  52.298  1.00  0.00     0.116 C 
BRANCH  82  83
ATOM     83  NE  ARG     5      58.547  37.259  52.339  1.00  0.00    -0.212 N 
ATOM     84  CZ  ARG     5      59.301  36.946  51.276  1.00  0.00     0.666 C 
ATOM     85  NH1 ARG     5      58.829  37.010  50.038  1.00  0.00    -0.235 N 
ATOM     86  NH2 ARG     5      60.503  36.418  51.444  1.00  0.00    -0.235 N 
ATOM     87 2HH1 ARG     5      57.889  37.327  49.897  1.00 99.99     0.174 HD
ATOM     88 1HH1 ARG     5      59.404  36.771  49.262  1.00 99.99     0.174 HD
ATOM     89 2HH2 ARG     5      60.861  36.245  52.360  1.00 99.99     0.174 HD
ATOM     90 1HH2 ARG     5      61.050  36.182  50.643  1.00 99.99     0.174 HD
ATOM     91  HE  ARG     5      58.984  37.332  53.231  1.00 99.99     0.178 HD
ENDBRANCH  82  83
ENDBRANCH  81  82
ENDBRANCH  80  81
ENDBRANCH  25  80
ENDBRANCH  23  25
ENDBRANCH  20  21
BRANCH  20  92
ATOM     92  CB  ARG     4      53.822  41.915  49.963  1.00  0.00     0.034 C 
BRANCH  92  93
ATOM     93  CG  ARG     4      53.939  40.639  49.122  1.00  0.00     0.027 C 
BRANCH  93  94
ATOM     94  CD  ARG     4      54.348  39.382  49.903  1.00  0.00     0.116 C 
BRANCH  94  95
ATOM     95  NE  ARG     4      55.329  38.554  49.183  1.00  0.00    -0.212 N 
ATOM     96  CZ  ARG     4      55.054  37.508  48.390  1.00  0.00     0.666 C 
ATOM     97  NH1 ARG     4      53.811  37.111  48.154  1.00  0.00    -0.235 N 
ATOM     98  NH2 ARG     4      56.036  36.824  47.819  1.00  0.00    -0.235 N 
ATOM     99 2HH1 ARG     4      53.056  37.604  48.592  1.00 99.99     0.174 HD
ATOM    100 1HH1 ARG     4      53.627  36.332  47.561  1.00 99.99     0.174 HD
ATOM    101 2HH2 ARG     4      56.990  37.068  47.986  1.00 99.99     0.174 HD
ATOM    102 1HH2 ARG     4      55.815  36.049  47.233  1.00 99.99     0.174 HD
ATOM    103  HE  ARG     4      56.285  38.767  49.375  1.00 99.99     0.178 HD
ENDBRANCH  94  95
ENDBRANCH  93  94
ENDBRANCH  92  93
ENDBRANCH  20  92
ENDBRANCH  17  20
ENDBRANCH  15  16
BRANCH  15 104
ATOM    104  CB  ARG     3      58.510  43.873  46.562  1.00  0.00     0.034 C 
BRANCH 104 105
ATOM    105  CG  ARG     3      58.825  43.841  45.064  1.00  0.00     0.027 C 
BRANCH 105 106
ATOM    106  CD  ARG     3      60.332  43.865  44.771  1.00  0.00     0.116 C 
BRANCH 106 107
ATOM    107  NE  ARG     3      60.899  42.522  44.536  1.00  0.00    -0.212 N 
ATOM    108  CZ  ARG     3      61.885  42.215  43.684  1.00  0.00     0.666 C 
ATOM    109  NH1 ARG     3      62.495  43.141  42.955  1.00  0.00    -0.235 N 
ATOM    110  NH2 ARG     3      62.258  40.955  43.513  1.00  0.00    -0.235 N 
ATOM    111 2HH1 ARG     3      62.192  44.091  43.035  1.00 99.99     0.174 HD
ATOM    112 1HH1 ARG     3      63.227  42.894  42.327  1.00 99.99     0.174 HD
ATOM    113 1HH2 ARG     3      62.995  40.744  42.874  1.00 99.99     0.174 HD
ATOM    114 2HH2 ARG     3      61.795  40.214  43.999  1.00 99.99     0.174 HD
ATOM    115  HE  ARG     3      60.442  41.780  45.022  1.00 99.99     0.178 HD
ENDBRANCH 106 107
ENDBRANCH 105 106
ENDBRANCH 104 105
ENDBRANCH  15 104
ENDBRANCH  12  15
ENDBRANCH  10  11
BRANCH  10 116
ATOM    116  CB  ARG     2      56.510  38.332  44.682  1.00  0.00     0.034 C 
BRANCH 116 117
ATOM    117  CG  ARG     2      57.800  37.775  44.059  1.00  0.00     0.027 C 
BRANCH 117 118
ATOM    118  CD  ARG     2      58.551  36.855  45.037  1.00  0.00     0.116 C 
BRANCH 118 119
ATOM    119  NE  ARG     2      59.081  37.600  46.192  1.00  0.00    -0.212 N 
ATOM    120  CZ  ARG     2      60.252  38.251  46.261  1.00  0.00     0.666 C 
ATOM    121  NH1 ARG     2      61.076  38.343  45.224  1.00  0.00    -0.235 N 
ATOM    122  NH2 ARG     2      60.688  38.737  47.417  1.00  0.00    -0.235 N 
ATOM    123 2HH1 ARG     2      60.809  37.936  44.351  1.00 99.99     0.174 HD
ATOM    124 1HH1 ARG     2      61.943  38.827  45.309  1.00 99.99     0.174 HD
ATOM    125 1HH2 ARG     2      61.567  39.208  47.451  1.00 99.99     0.174 HD
ATOM    126 2HH2 ARG     2      60.150  38.634  48.252  1.00 99.99     0.174 HD
ATOM    127  HE  ARG     2      58.468  37.670  46.979  1.00 99.99     0.178 HD
ENDBRANCH 118 119
ENDBRANCH 117 118
ENDBRANCH 116 117
ENDBRANCH  10 116
ENDBRANCH   7  10
ENDBRANCH   5   6
BRANCH   5 128
ATOM    128  CB  ARG     1      59.443  40.484  40.774  1.00  0.00     0.042 C 
BRANCH 128 129
ATOM    129  CG  ARG     1      59.149  40.512  39.263  1.00  0.00     0.027 C 
BRANCH 129 130
ATOM    130  CD  ARG     1      59.819  41.685  38.527  1.00  0.00     0.116 C 
BRANCH 130 131
ATOM    131  NE  ARG     1      58.841  42.576  37.878  1.00  0.00    -0.212 N 
ATOM    132  CZ  ARG     1      59.101  43.545  36.990  1.00  0.00     0.666 C 
ATOM    133  NH2 ARG     1      58.103  44.235  36.454  1.00  0.00    -0.235 N 
ATOM    134  NH1 ARG     1      60.331  43.834  36.582  1.00  0.00    -0.235 N 
ATOM    135 1HH2 ARG     1      58.302  44.951  35.789  1.00 99.99     0.174 HD
ATOM    136 2HH2 ARG     1      57.157  44.047  36.715  1.00 99.99     0.174 HD
ATOM    137 1HH1 ARG     1      60.485  44.558  35.915  1.00 99.99     0.174 HD
ATOM    138 2HH1 ARG     1      61.103  43.321  36.957  1.00 99.99     0.174 HD
ATOM    139  HE  ARG     1      57.900  42.469  38.189  1.00 99.99     0.178 HD
ENDBRANCH 130 131
ENDBRANCH 129 130
ENDBRANCH 128 129
ENDBRANCH   5 128
ENDBRANCH   1   5
TORSDOF 48
ENDMDL
MODEL 3
REMARK VINA RESULT:      -4.7      2.190      9.098
REMARK WARNING: 32 MAX_TORS EXCEEDED!!!
REMARK  48 active torsions:
REMARK  status: ('A' for Active; 'I' for Inactive)
REMARK    1  A    between atoms: N_1  and  CA_2 
REMARK    2  A    between atoms: CA_2  and  C_3 
REMARK    3  A    between atoms: CA_2  and  CB_5 
REMARK       I    between atoms: C_3  and  N_20 
REMARK    4  A    between atoms: CB_5  and  CG_6 
REMARK    5  A    between atoms: CG_6  and  CD_7 
REMARK    6  A    between atoms: CD_7  and  NE_8 
REMARK       I    between atoms: NE_8  and  CZ_9 
REMARK       I    between atoms: CZ_9  and  NH2_11 
REMARK       I    between atoms: CZ_9  and  NH1_10 
REMARK    7  A    between atoms: N_20  and  CA_21 
REMARK    8  A    between atoms: CA_21  and  C_22 
REMARK    9  A    between atoms: CA_21  and  CB_24 
REMARK       I    between atoms: C_22  and  N_37 
REMARK   10  A    between atoms: CB_24  and  CG_25 
REMARK   11  A    between atoms: CG_25  and  CD_26 
REMARK   12  A    between atoms: CD_26  and  NE_27 
REMARK       I    between atoms: NE_27  and  CZ_28 
REMARK       I    between atoms: CZ_28  and  NH1_29 
REMARK       I    between atoms: CZ_28  and  NH2_30 
REMARK   13  A    between atoms: N_37  and  CA_38 
REMARK   14  A    between atoms: CA_38  and  C_39 
REMARK   15  A    between atoms: CA_38  and  CB_41 
REMARK       I    between atoms: C_39  and  N_54 
REMARK   16  A    between atoms: CB_41  and  CG_42 
REMARK   17  A    between atoms: CG_42  and  CD_43 
REMARK   18  A    between atoms: CD_43  and  NE_44 
REMARK       I    between atoms: NE_44  and  CZ_45 
REMARK       I    between atoms: CZ_45  and  NH1_46 
REMARK       I    between atoms: CZ_45  and  NH2_47 
REMARK   19  A    between atoms: N_54  and  CA_55 
REMARK   20  A    between atoms: CA_55  and  C_56 
REMARK   21  A    between atoms: CA_55  and  CB_58 
REMARK       I    between atoms: C_56  and  N_71 
REMARK   22  A    between atoms: CB_58  and  CG_59 
REMARK   23  A    between atoms: CG_59  and  CD_60 
REMARK   24  A    between atoms: CD_60  and  NE_61 
REMARK       I    between atoms: NE_61  and  CZ_62 
REMARK       I    between atoms: CZ_62  and  NH1_63 
REMARK       I    between atoms: CZ_62  and  NH2_64 
REMARK   25  A    between atoms: N_71  and  CA_72 
REMARK   26  A    between atoms: CA_72  and  C_73 
REMARK   27  A    between atoms: CA_72  and  CB_75 
REMARK       I    between atoms: C_73  and  N_88 
REMARK   28  A    between atoms: CB_75  and  CG_76 
REMARK   29  A    between atoms: CG_76  and  CD_77 
REMARK   30  A    between atoms: CD_77  and  NE_78 
REMARK       I    between atoms: NE_78  and  CZ_79 
REMARK       I    between atoms: CZ_79  and  NH1_80 
REMARK       I    between atoms: CZ_79  and  NH2_81 
REMARK   31  A    between atoms: N_88  and  CA_89 
REMARK   32  A    between atoms: CA_89  and  CB_92 
REMARK   33  A    between atoms: CA_89  and  C_90 
REMARK       I    between atoms: C_90  and  N_105 
REMARK   34  A    between atoms: CB_92  and  CG_93 
REMARK   35  A    between atoms: CG_93  and  CD_94 
REMARK   36  A    between atoms: CD_94  and  NE_95 
REMARK       I    between atoms: NE_95  and  CZ_96 
REMARK       I    between atoms: CZ_96  and  NH2_98 
REMARK       I    between atoms: CZ_96  and  NH1_97 
REMARK   37  A    between atoms: N_105  and  CA_106 
REMARK   38  A    between atoms: CA_106  and  C_107 
REMARK   39  A    between atoms: CA_106  and  CB_109 
REMARK       I    between atoms: C_107  and  N_122 
REMARK   40  A    between atoms: CB_109  and  CG_110 
REMARK   41  A    between atoms: CG_110  and  CD_111 
REMARK   42  A    between atoms: CD_111  and  NE_112 
REMARK       I    between atoms: NE_112  and  CZ_113 
REMARK       I    between atoms: CZ_113  and  NH2_115 
REMARK       I    between atoms: CZ_113  and  NH1_114 
REMARK   43  A    between atoms: N_122  and  CA_123 
REMARK   44  A    between atoms: CA_123  and  C_124 
REMARK   45  A    between atoms: CA_123  and  CB_126 
REMARK   46  A    between atoms: CB_126  and  CG_127 
REMARK   47  A    between atoms: CG_127  and  CD_128 
REMARK   48  A    between atoms: CD_128  and  NE_129 
REMARK       I    between atoms: NE_129  and  CZ_130 
REMARK       I    between atoms: CZ_130  and  NH1_131 
ROOT
ATOM      1  N   ARG     1      58.792  42.776  41.627  1.00  0.00    -0.058 N 
ATOM      2  H1  ARG     1      58.292  43.061  42.437  1.00 99.99     0.276 HD
ATOM      3  H2  ARG     1      59.731  43.068  41.685  1.00 99.99     0.276 HD
ATOM      4  H3  ARG     1      58.424  43.255  40.836  1.00 99.99     0.276 HD
ENDROOT
BRANCH   1   5
ATOM      5  CA  ARG     1      58.673  41.292  41.469  1.00  0.00     0.255 C 
BRANCH   5   6
ATOM      6  C   ARG     1      58.277  40.623  42.809  1.00  0.00     0.259 C 
ATOM      7  N   ARG     2      56.985  40.586  43.174  1.00  0.00    -0.338 N 
ATOM      8  H   ARG     2      56.285  41.024  42.607  1.00 99.99     0.164 HD
ATOM      9  O   ARG     1      59.148  39.969  43.382  1.00  0.00    -0.271 OA
BRANCH   7  10
ATOM     10  CA  ARG     2      56.431  39.980  44.417  1.00  0.00     0.159 C 
BRANCH  10  11
ATOM     11  C   ARG     2      56.899  40.563  45.770  1.00  0.00     0.251 C 
ATOM     12  N   ARG     3      57.302  41.843  45.789  1.00  0.00    -0.338 N 
ATOM     13  H   ARG     3      57.470  42.329  44.933  1.00 99.99     0.164 HD
ATOM     14  O   ARG     2      56.739  39.895  46.794  1.00  0.00    -0.271 OA
BRANCH  12  15
ATOM     15  CA  ARG     3      57.697  42.612  46.992  1.00  0.00     0.159 C 
BRANCH  15  16
ATOM     16  C   ARG     3      56.599  43.148  47.926  1.00  0.00     0.251 C 
ATOM     17  N   ARG     4      55.964  42.288  48.729  1.00  0.00    -0.338 N 
ATOM     18  H   ARG     4      56.131  41.295  48.685  1.00 99.99     0.164 HD
ATOM     19  O   ARG     3      56.224  44.317  47.807  1.00  0.00    -0.271 OA
BRANCH  17  20
ATOM     20  CA  ARG     4      55.027  42.744  49.768  1.00  0.00     0.159 C 
BRANCH  20  21
ATOM     21  C   ARG     4      55.664  42.750  51.159  1.00  0.00     0.251 C 
ATOM     22  O   ARG     4      55.593  43.786  51.830  1.00  0.00    -0.271 OA
ATOM     23  N   ARG     5      56.587  41.804  51.385  1.00  0.00    -0.338 N 
ATOM     24  H   ARG     5      56.821  41.169  50.650  1.00 99.99     0.164 HD
BRANCH  23  25
ATOM     25  CA  ARG     5      57.362  41.581  52.624  1.00  0.00     0.159 C 
BRANCH  25  26
ATOM     26  C   ARG     5      58.699  42.327  52.815  1.00  0.00     0.251 C 
ATOM     27  N   ARG     6      59.812  41.663  52.499  1.00  0.00    -0.338 N 
ATOM     28  H   ARG     6      59.770  40.685  52.299  1.00 99.99     0.164 HD
ATOM     29  O   ARG     5      58.728  43.424  53.385  1.00  0.00    -0.271 OA
BRANCH  27  30
ATOM     30  CA  ARG     6      61.170  42.240  52.480  1.00  0.00     0.159 C 
BRANCH  30  31
ATOM     31  CB  ARG     6      62.025  41.350  53.392  1.00  0.00     0.034 C 
BRANCH  31  32
ATOM     32  CG  ARG     6      61.466  39.928  53.514  1.00  0.00     0.027 C 
BRANCH  32  33
ATOM     33  CD  ARG     6      60.997  39.605  54.939  1.00  0.00     0.116 C 
BRANCH  33  34
ATOM     34  NE  ARG     6      61.565  40.522  55.951  1.00  0.00    -0.212 N 
ATOM     35  HE  ARG     6      61.095  41.397  56.026  1.00 99.99     0.178 HD
ATOM     36  CZ  ARG     6      62.581  40.297  56.797  1.00  0.00     0.666 C 
ATOM     37  NH2 ARG     6      63.054  41.295  57.533  1.00  0.00    -0.235 N 
ATOM     38  NH1 ARG     6      63.218  39.138  56.865  1.00  0.00    -0.235 N 
ATOM     39 1HH2 ARG     6      63.808  41.117  58.161  1.00 99.99     0.174 HD
ATOM     40 2HH2 ARG     6      62.671  42.211  57.451  1.00 99.99     0.174 HD
ATOM     41 2HH1 ARG     6      62.897  38.378  56.299  1.00 99.99     0.174 HD
ATOM     42 1HH1 ARG     6      63.953  38.997  57.521  1.00 99.99     0.174 HD
ENDBRANCH  33  34
ENDBRANCH  32  33
ENDBRANCH  31  32
ENDBRANCH  30  31
BRANCH  30  43
ATOM     43  C   ARG     6      61.751  42.326  51.041  1.00  0.00     0.251 C 
ATOM     44  N   ARG     7      61.031  43.028  50.169  1.00  0.00    -0.338 N 
ATOM     45  H   ARG     7      60.098  43.275  50.425  1.00 99.99     0.164 HD
ATOM     46  O   ARG     6      62.759  41.713  50.698  1.00  0.00    -0.271 OA
BRANCH  44  47
ATOM     47  CA  ARG     7      61.364  43.278  48.743  1.00  0.00     0.159 C 
BRANCH  47  48
ATOM     48  C   ARG     7      61.752  42.004  47.966  1.00  0.00     0.251 C 
ATOM     49  O   ARG     7      60.897  41.284  47.455  1.00  0.00    -0.271 OA
ATOM     50  N   ARG     8      63.059  41.911  47.717  1.00  0.00    -0.336 N 
ATOM     51  H   ARG     8      63.651  42.648  48.040  1.00 99.99     0.164 HD
BRANCH  50  52
ATOM     52  CA  ARG     8      63.827  40.874  46.993  1.00  0.00     0.168 C 
BRANCH  52  53
ATOM     53  C   ARG     8      64.161  39.794  48.036  1.00  0.00     0.206 C 
ATOM     54  OXT ARG     8      63.289  38.902  48.190  1.00 99.99    -0.646 OA
ATOM     55  O   ARG     8      65.304  39.797  48.546  1.00 99.99    -0.646 OA
ENDBRANCH  52  53
BRANCH  52  56
ATOM     56  CB  ARG     8      65.213  41.360  46.545  1.00  0.00     0.035 C 
BRANCH  56  57
ATOM     57  CG  ARG     8      65.402  42.813  46.116  1.00  0.00     0.027 C 
BRANCH  57  58
ATOM     58  CD  ARG     8      66.837  42.906  45.605  1.00  0.00     0.116 C 
BRANCH  58  59
ATOM     59  NE  ARG     8      66.980  42.385  44.235  1.00  0.00    -0.212 N 
ATOM     60  HE  ARG     8      66.375  42.785  43.553  1.00 99.99     0.178 HD
ATOM     61  CZ  ARG     8      67.857  41.448  43.862  1.00  0.00     0.666 C 
ATOM     62  NH2 ARG     8      68.012  41.163  42.581  1.00  0.00    -0.235 N 
ATOM     63  NH1 ARG     8      68.675  40.868  44.735  1.00  0.00    -0.235 N 
ATOM     64 2HH2 ARG     8      67.482  41.648  41.889  1.00 99.99     0.174 HD
ATOM     65 1HH2 ARG     8      68.674  40.465  42.308  1.00 99.99     0.174 HD
ATOM     66 1HH1 ARG     8      69.326  40.174  44.442  1.00 99.99     0.174 HD
ATOM     67 2HH1 ARG     8      68.623  41.144  45.694  1.00 99.99     0.174 HD
ENDBRANCH  58  59
ENDBRANCH  57  58
ENDBRANCH  56  57
ENDBRANCH  52  56
ENDBRANCH  50  52
ENDBRANCH  47  48
BRANCH  47  68
ATOM     68  CB  ARG     7      62.555  44.240  48.617  1.00  0.00     0.034 C 
BRANCH  68  69
ATOM     69  CG  ARG     7      62.568  45.403  49.609  1.00  0.00     0.027 C 
BRANCH  69  70
ATOM     70  CD  ARG     7      63.931  45.424  50.300  1.00  0.00     0.116 C 
BRANCH  70  71
ATOM     71  NE  ARG     7      65.017  45.185  49.336  1.00  0.00    -0.212 N 
ATOM     72  HE  ARG     7      65.156  44.229  49.085  1.00 99.99     0.178 HD
ATOM     73  CZ  ARG     7      65.836  46.117  48.836  1.00  0.00     0.666 C 
ATOM     74  NH2 ARG     7      66.685  45.817  47.864  1.00  0.00    -0.235 N 
ATOM     75  NH1 ARG     7      65.768  47.386  49.222  1.00  0.00    -0.235 N 
ATOM     76 2HH2 ARG     7      66.725  44.891  47.494  1.00 99.99     0.174 HD
ATOM     77 1HH2 ARG     7      67.283  46.529  47.499  1.00 99.99     0.174 HD
ATOM     78 1HH1 ARG     7      66.379  48.071  48.840  1.00 99.99     0.174 HD
ATOM     79 2HH1 ARG     7      65.088  47.635  49.913  1.00 99.99     0.174 HD
ENDBRANCH  70  71
ENDBRANCH  69  70
ENDBRANCH  68  69
ENDBRANCH  47  68
ENDBRANCH  44  47
ENDBRANCH  30  43
ENDBRANCH  27  30
ENDBRANCH  25  26
BRANCH  25  80
ATOM     80  CB  ARG     5      57.643  40.076  52.768  1.00  0.00     0.034 C 
BRANCH  80  81
ATOM     81  CG  ARG     5      56.608  39.167  52.111  1.00  0.00     0.027 C 
BRANCH  81  82
ATOM     82  CD  ARG     5      57.313  38.379  51.005  1.00  0.00     0.116 C 
BRANCH  82  83
ATOM     83  NE  ARG     5      58.758  38.661  50.977  1.00  0.00    -0.212 N 
ATOM     84  CZ  ARG     5      59.414  39.260  49.974  1.00  0.00     0.666 C 
ATOM     85  NH1 ARG     5      58.783  39.737  48.909  1.00  0.00    -0.235 N 
ATOM     86  NH2 ARG     5      60.737  39.261  49.950  1.00  0.00    -0.235 N 
ATOM     87 2HH1 ARG     5      57.785  39.669  48.871  1.00 99.99     0.174 HD
ATOM     88 1HH1 ARG     5      59.288  40.177  48.173  1.00 99.99     0.174 HD
ATOM     89 2HH2 ARG     5      61.261  38.815  50.674  1.00 99.99     0.174 HD
ATOM     90 1HH2 ARG     5      61.213  39.703  49.192  1.00 99.99     0.174 HD
ATOM     91  HE  ARG     5      59.254  38.447  51.814  1.00 99.99     0.178 HD
ENDBRANCH  82  83
ENDBRANCH  81  82
ENDBRANCH  80  81
ENDBRANCH  25  80
ENDBRANCH  23  25
ENDBRANCH  20  21
BRANCH  20  92
ATOM     92  CB  ARG     4      53.664  42.024  49.718  1.00  0.00     0.034 C 
BRANCH  92  93
ATOM     93  CG  ARG     4      53.895  40.534  49.440  1.00  0.00     0.027 C 
BRANCH  93  94
ATOM     94  CD  ARG     4      52.818  39.595  50.003  1.00  0.00     0.116 C 
BRANCH  94  95
ATOM     95  NE  ARG     4      53.107  39.149  51.376  1.00  0.00    -0.212 N 
ATOM     96  CZ  ARG     4      52.205  38.756  52.288  1.00  0.00     0.666 C 
ATOM     97  NH1 ARG     4      50.907  38.713  52.023  1.00  0.00    -0.235 N 
ATOM     98  NH2 ARG     4      52.595  38.403  53.505  1.00  0.00    -0.235 N 
ATOM     99 2HH1 ARG     4      50.591  38.994  51.114  1.00 99.99     0.174 HD
ATOM    100 1HH1 ARG     4      50.254  38.417  52.714  1.00 99.99     0.174 HD
ATOM    101 2HH2 ARG     4      53.560  38.442  53.762  1.00 99.99     0.174 HD
ATOM    102 1HH2 ARG     4      51.914  38.114  54.173  1.00 99.99     0.174 HD
ATOM    103  HE  ARG     4      54.062  39.222  51.652  1.00 99.99     0.178 HD
ENDBRANCH  94  95
ENDBRANCH  93  94
ENDBRANCH  92  93
ENDBRANCH  20  92
ENDBRANCH  17  20
ENDBRANCH  15  16
BRANCH  15 104
ATOM    104  CB  ARG     3      58.602  43.800  46.623  1.00  0.00     0.034 C 
BRANCH 104 105
ATOM    105  CG  ARG     3      58.911  43.880  45.126  1.00  0.00     0.027 C 
BRANCH 105 106
ATOM    106  CD  ARG     3      60.410  43.744  44.817  1.00  0.00     0.116 C 
BRANCH 106 107
ATOM    107  NE  ARG     3      60.826  42.350  44.564  1.00  0.00    -0.212 N 
ATOM    108  CZ  ARG     3      61.948  41.956  43.950  1.00  0.00     0.666 C 
ATOM    109  NH1 ARG     3      62.851  42.826  43.516  1.00  0.00    -0.235 N 
ATOM    110  NH2 ARG     3      62.174  40.671  43.720  1.00  0.00    -0.235 N 
ATOM    111 2HH1 ARG     3      62.674  43.803  43.637  1.00 99.99     0.174 HD
ATOM    112 1HH1 ARG     3      63.682  42.515  43.062  1.00 99.99     0.174 HD
ATOM    113 1HH2 ARG     3      63.015  40.395  43.261  1.00 99.99     0.174 HD
ATOM    114 2HH2 ARG     3      61.500  39.979  43.979  1.00 99.99     0.174 HD
ATOM    115  HE  ARG     3      60.158  41.656  44.825  1.00 99.99     0.178 HD
ENDBRANCH 106 107
ENDBRANCH 105 106
ENDBRANCH 104 105
ENDBRANCH  15 104
ENDBRANCH  12  15
ENDBRANCH  10  11
BRANCH  10 116
ATOM    116  CB  ARG     2      56.548  38.442  44.393  1.00  0.00     0.034 C 
BRANCH 116 117
ATOM    117  CG  ARG     2      55.323  37.739  43.784  1.00  0.00     0.027 C 
BRANCH 117 118
ATOM    118  CD  ARG     2      54.915  36.501  44.599  1.00  0.00     0.116 C 
BRANCH 118 119
ATOM    119  NE  ARG     2      53.596  36.675  45.234  1.00  0.00    -0.212 N 
ATOM    120  CZ  ARG     2      53.330  37.344  46.366  1.00  0.00     0.666 C 
ATOM    121  NH1 ARG     2      54.267  37.999  47.042  1.00  0.00    -0.235 N 
ATOM    122  NH2 ARG     2      52.126  37.280  46.923  1.00  0.00    -0.235 N 
ATOM    123 2HH1 ARG     2      55.201  38.019  46.686  1.00 99.99     0.174 HD
ATOM    124 1HH1 ARG     2      54.040  38.480  47.885  1.00 99.99     0.174 HD
ATOM    125 1HH2 ARG     2      51.951  37.774  47.771  1.00 99.99     0.174 HD
ATOM    126 2HH2 ARG     2      51.397  36.741  46.505  1.00 99.99     0.174 HD
ATOM    127  HE  ARG     2      52.819  36.303  44.726  1.00 99.99     0.178 HD
ENDBRANCH 118 119
ENDBRANCH 117 118
ENDBRANCH 116 117
ENDBRANCH  10 116
ENDBRANCH   7  10
ENDBRANCH   5   6
BRANCH   5 128
ATOM    128  CB  ARG     1      59.913  40.701  40.779  1.00  0.00     0.042 C 
BRANCH 128 129
ATOM    129  CG  ARG     1      60.970  41.774  40.457  1.00  0.00     0.027 C 
BRANCH 129 130
ATOM    130  CD  ARG     1      61.242  41.939  38.952  1.00  0.00     0.116 C 
BRANCH 130 131
ATOM    131  NE  ARG     1      60.455  43.029  38.352  1.00  0.00    -0.212 N 
ATOM    132  CZ  ARG     1      59.279  42.920  37.720  1.00  0.00     0.666 C 
ATOM    133  NH2 ARG     1      58.665  44.007  37.273  1.00  0.00    -0.235 N 
ATOM    134  NH1 ARG     1      58.664  41.757  37.544  1.00  0.00    -0.235 N 
ATOM    135 1HH2 ARG     1      57.787  43.920  36.809  1.00 99.99     0.174 HD
ATOM    136 2HH2 ARG     1      59.077  44.909  37.394  1.00 99.99     0.174 HD
ATOM    137 1HH1 ARG     1      57.786  41.715  37.075  1.00 99.99     0.174 HD
ATOM    138 2HH1 ARG     1      59.095  40.920  37.883  1.00 99.99     0.174 HD
ATOM    139  HE  ARG     1      60.888  43.927  38.378  1.00 99.99     0.178 HD
ENDBRANCH 130 131
ENDBRANCH 129 130
ENDBRANCH 128 129
ENDBRANCH   5 128
ENDBRANCH   1   5
TORSDOF 48
ENDMDL
MODEL 4
REMARK VINA RESULT:      -4.7      2.241      7.996
REMARK WARNING: 32 MAX_TORS EXCEEDED!!!
REMARK  48 active torsions:
REMARK  status: ('A' for Active; 'I' for Inactive)
REMARK    1  A    between atoms: N_1  and  CA_2 
REMARK    2  A    between atoms: CA_2  and  C_3 
REMARK    3  A    between atoms: CA_2  and  CB_5 
REMARK       I    between atoms: C_3  and  N_20 
REMARK    4  A    between atoms: CB_5  and  CG_6 
REMARK    5  A    between atoms: CG_6  and  CD_7 
REMARK    6  A    between atoms: CD_7  and  NE_8 
REMARK       I    between atoms: NE_8  and  CZ_9 
REMARK       I    between atoms: CZ_9  and  NH2_11 
REMARK       I    between atoms: CZ_9  and  NH1_10 
REMARK    7  A    between atoms: N_20  and  CA_21 
REMARK    8  A    between atoms: CA_21  and  C_22 
REMARK    9  A    between atoms: CA_21  and  CB_24 
REMARK       I    between atoms: C_22  and  N_37 
REMARK   10  A    between atoms: CB_24  and  CG_25 
REMARK   11  A    between atoms: CG_25  and  CD_26 
REMARK   12  A    between atoms: CD_26  and  NE_27 
REMARK       I    between atoms: NE_27  and  CZ_28 
REMARK       I    between atoms: CZ_28  and  NH1_29 
REMARK       I    between atoms: CZ_28  and  NH2_30 
REMARK   13  A    between atoms: N_37  and  CA_38 
REMARK   14  A    between atoms: CA_38  and  C_39 
REMARK   15  A    between atoms: CA_38  and  CB_41 
REMARK       I    between atoms: C_39  and  N_54 
REMARK   16  A    between atoms: CB_41  and  CG_42 
REMARK   17  A    between atoms: CG_42  and  CD_43 
REMARK   18  A    between atoms: CD_43  and  NE_44 
REMARK       I    between atoms: NE_44  and  CZ_45 
REMARK       I    between atoms: CZ_45  and  NH1_46 
REMARK       I    between atoms: CZ_45  and  NH2_47 
REMARK   19  A    between atoms: N_54  and  CA_55 
REMARK   20  A    between atoms: CA_55  and  C_56 
REMARK   21  A    between atoms: CA_55  and  CB_58 
REMARK       I    between atoms: C_56  and  N_71 
REMARK   22  A    between atoms: CB_58  and  CG_59 
REMARK   23  A    between atoms: CG_59  and  CD_60 
REMARK   24  A    between atoms: CD_60  and  NE_61 
REMARK       I    between atoms: NE_61  and  CZ_62 
REMARK       I    between atoms: CZ_62  and  NH1_63 
REMARK       I    between atoms: CZ_62  and  NH2_64 
REMARK   25  A    between atoms: N_71  and  CA_72 
REMARK   26  A    between atoms: CA_72  and  C_73 
REMARK   27  A    between atoms: CA_72  and  CB_75 
REMARK       I    between atoms: C_73  and  N_88 
REMARK   28  A    between atoms: CB_75  and  CG_76 
REMARK   29  A    between atoms: CG_76  and  CD_77 
REMARK   30  A    between atoms: CD_77  and  NE_78 
REMARK       I    between atoms: NE_78  and  CZ_79 
REMARK       I    between atoms: CZ_79  and  NH1_80 
REMARK       I    between atoms: CZ_79  and  NH2_81 
REMARK   31  A    between atoms: N_88  and  CA_89 
REMARK   32  A    between atoms: CA_89  and  CB_92 
REMARK   33  A    between atoms: CA_89  and  C_90 
REMARK       I    between atoms: C_90  and  N_105 
REMARK   34  A    between atoms: CB_92  and  CG_93 
REMARK   35  A    between atoms: CG_93  and  CD_94 
REMARK   36  A    between atoms: CD_94  and  NE_95 
REMARK       I    between atoms: NE_95  and  CZ_96 
REMARK       I    between atoms: CZ_96  and  NH2_98 
REMARK       I    between atoms: CZ_96  and  NH1_97 
REMARK   37  A    between atoms: N_105  and  CA_106 
REMARK   38  A    between atoms: CA_106  and  C_107 
REMARK   39  A    between atoms: CA_106  and  CB_109 
REMARK       I    between atoms: C_107  and  N_122 
REMARK   40  A    between atoms: CB_109  and  CG_110 
REMARK   41  A    between atoms: CG_110  and  CD_111 
REMARK   42  A    between atoms: CD_111  and  NE_112 
REMARK       I    between atoms: NE_112  and  CZ_113 
REMARK       I    between atoms: CZ_113  and  NH2_115 
REMARK       I    between atoms: CZ_113  and  NH1_114 
REMARK   43  A    between atoms: N_122  and  CA_123 
REMARK   44  A    between atoms: CA_123  and  C_124 
REMARK   45  A    between atoms: CA_123  and  CB_126 
REMARK   46  A    between atoms: CB_126  and  CG_127 
REMARK   47  A    between atoms: CG_127  and  CD_128 
REMARK   48  A    between atoms: CD_128  and  NE_129 
REMARK       I    between atoms: NE_129  and  CZ_130 
REMARK       I    between atoms: CZ_130  and  NH1_131 
ROOT
ATOM      1  N   ARG     1      63.353  42.866  43.858  1.00  0.00    -0.058 N 
ATOM      2  H1  ARG     1      62.361  42.918  43.831  1.00 99.99     0.276 HD
ATOM      3  H2  ARG     1      63.748  43.708  43.536  1.00 99.99     0.276 HD
ATOM      4  H3  ARG     1      63.657  42.176  43.207  1.00 99.99     0.276 HD
ENDROOT
BRANCH   1   5
ATOM      5  CA  ARG     1      63.793  42.534  45.249  1.00  0.00     0.255 C 
BRANCH   5   6
ATOM      6  C   ARG     1      62.635  42.735  46.259  1.00  0.00     0.259 C 
ATOM      7  N   ARG     2      62.876  42.616  47.575  1.00  0.00    -0.338 N 
ATOM      8  H   ARG     2      63.786  42.357  47.903  1.00 99.99     0.164 HD
ATOM      9  O   ARG     1      61.587  43.202  45.815  1.00  0.00    -0.271 OA
BRANCH   7  10
ATOM     10  CA  ARG     2      61.887  42.782  48.677  1.00  0.00     0.159 C 
BRANCH  10  11
ATOM     11  C   ARG     2      60.468  42.212  48.460  1.00  0.00     0.251 C 
ATOM     12  N   ARG     3      59.518  43.056  48.030  1.00  0.00    -0.338 N 
ATOM     13  H   ARG     3      59.681  44.041  48.036  1.00 99.99     0.164 HD
ATOM     14  O   ARG     2      60.297  40.993  48.534  1.00  0.00    -0.271 OA
BRANCH  12  15
ATOM     15  CA  ARG     3      58.126  42.691  47.674  1.00  0.00     0.159 C 
BRANCH  15  16
ATOM     16  C   ARG     3      57.887  41.735  46.493  1.00  0.00     0.251 C 
ATOM     17  N   ARG     4      58.907  41.460  45.673  1.00  0.00    -0.338 N 
ATOM     18  H   ARG     4      59.800  41.916  45.764  1.00 99.99     0.164 HD
ATOM     19  O   ARG     3      56.737  41.369  46.238  1.00  0.00    -0.271 OA
BRANCH  17  20
ATOM     20  CA  ARG     4      58.805  40.428  44.628  1.00  0.00     0.159 C 
BRANCH  20  21
ATOM     21  C   ARG     4      59.774  39.268  44.865  1.00  0.00     0.251 C 
ATOM     22  O   ARG     4      59.501  38.168  44.372  1.00  0.00    -0.271 OA
ATOM     23  N   ARG     5      60.613  39.408  45.901  1.00  0.00    -0.338 N 
ATOM     24  H   ARG     5      60.556  40.231  46.465  1.00 99.99     0.164 HD
BRANCH  23  25
ATOM     25  CA  ARG     5      61.642  38.450  46.362  1.00  0.00     0.159 C 
BRANCH  25  26
ATOM     26  C   ARG     5      61.366  37.608  47.625  1.00  0.00     0.251 C 
ATOM     27  N   ARG     6      61.301  38.262  48.785  1.00  0.00    -0.338 N 
ATOM     28  H   ARG     6      61.571  39.223  48.833  1.00 99.99     0.164 HD
ATOM     29  O   ARG     5      61.371  36.372  47.566  1.00  0.00    -0.271 OA
BRANCH  27  30
ATOM     30  CA  ARG     6      60.916  37.664  50.078  1.00  0.00     0.159 C 
BRANCH  30  31
ATOM     31  CB  ARG     6      61.753  38.381  51.147  1.00  0.00     0.034 C 
BRANCH  31  32
ATOM     32  CG  ARG     6      62.892  39.207  50.541  1.00  0.00     0.027 C 
BRANCH  32  33
ATOM     33  CD  ARG     6      63.652  40.018  51.599  1.00  0.00     0.116 C 
BRANCH  33  34
ATOM     34  NE  ARG     6      63.195  41.422  51.683  1.00  0.00    -0.212 N 
ATOM     35  HE  ARG     6      63.592  42.028  50.999  1.00 99.99     0.178 HD
ATOM     36  CZ  ARG     6      62.288  41.952  52.518  1.00  0.00     0.666 C 
ATOM     37  NH2 ARG     6      62.116  43.267  52.551  1.00  0.00    -0.235 N 
ATOM     38  NH1 ARG     6      61.616  41.229  53.402  1.00  0.00    -0.235 N 
ATOM     39 1HH2 ARG     6      61.438  43.650  53.173  1.00 99.99     0.174 HD
ATOM     40 2HH2 ARG     6      62.664  43.864  51.971  1.00 99.99     0.174 HD
ATOM     41 2HH1 ARG     6      61.749  40.238  53.415  1.00 99.99     0.174 HD
ATOM     42 1HH1 ARG     6      60.934  41.650  53.991  1.00 99.99     0.174 HD
ENDBRANCH  33  34
ENDBRANCH  32  33
ENDBRANCH  31  32
ENDBRANCH  30  31
BRANCH  30  43
ATOM     43  C   ARG     6      59.390  37.791  50.352  1.00  0.00     0.251 C 
ATOM     44  N   ARG     7      58.743  38.682  49.605  1.00  0.00    -0.338 N 
ATOM     45  H   ARG     7      59.286  39.333  49.078  1.00 99.99     0.164 HD
ATOM     46  O   ARG     6      58.830  37.182  51.259  1.00  0.00    -0.271 OA
BRANCH  44  47
ATOM     47  CA  ARG     7      57.289  38.988  49.652  1.00  0.00     0.159 C 
BRANCH  47  48
ATOM     48  C   ARG     7      56.834  39.621  50.982  1.00  0.00     0.251 C 
ATOM     49  O   ARG     7      55.956  39.103  51.667  1.00  0.00    -0.271 OA
ATOM     50  N   ARG     8      57.629  40.608  51.400  1.00  0.00    -0.336 N 
ATOM     51  H   ARG     8      58.422  40.840  50.839  1.00 99.99     0.164 HD
BRANCH  50  52
ATOM     52  CA  ARG     8      57.559  41.446  52.617  1.00  0.00     0.168 C 
BRANCH  52  53
ATOM     53  C   ARG     8      58.702  42.467  52.490  1.00  0.00     0.206 C 
ATOM     54  OXT ARG     8      59.219  42.562  51.348  1.00 99.99    -0.646 OA
ATOM     55  O   ARG     8      58.942  43.213  53.466  1.00 99.99    -0.646 OA
ENDBRANCH  52  53
BRANCH  52  56
ATOM     56  CB  ARG     8      57.924  40.677  53.895  1.00  0.00     0.035 C 
BRANCH  56  57
ATOM     57  CG  ARG     8      56.821  40.239  54.855  1.00  0.00     0.027 C 
BRANCH  57  58
ATOM     58  CD  ARG     8      57.523  39.942  56.176  1.00  0.00     0.116 C 
BRANCH  58  59
ATOM     59  NE  ARG     8      56.623  40.082  57.335  1.00  0.00    -0.212 N 
ATOM     60  HE  ARG     8      55.828  39.482  57.341  1.00 99.99     0.178 HD
ATOM     61  CZ  ARG     8      56.813  40.928  58.351  1.00  0.00     0.666 C 
ATOM     62  NH2 ARG     8      56.032  40.865  59.416  1.00  0.00    -0.235 N 
ATOM     63  NH1 ARG     8      57.848  41.762  58.384  1.00  0.00    -0.235 N 
ATOM     64 2HH2 ARG     8      55.303  40.185  59.467  1.00 99.99     0.174 HD
ATOM     65 1HH2 ARG     8      56.183  41.496  60.176  1.00 99.99     0.174 HD
ATOM     66 1HH1 ARG     8      57.979  42.384  59.151  1.00 99.99     0.174 HD
ATOM     67 2HH1 ARG     8      58.493  41.752  57.621  1.00 99.99     0.174 HD
ENDBRANCH  58  59
ENDBRANCH  57  58
ENDBRANCH  56  57
ENDBRANCH  52  56
ENDBRANCH  50  52
ENDBRANCH  47  48
BRANCH  47  68
ATOM     68  CB  ARG     7      56.452  37.713  49.473  1.00  0.00     0.034 C 
BRANCH  68  69
ATOM     69  CG  ARG     7      56.431  37.135  48.058  1.00  0.00     0.027 C 
BRANCH  69  70
ATOM     70  CD  ARG     7      55.130  37.570  47.385  1.00  0.00     0.116 C 
BRANCH  70  71
ATOM     71  NE  ARG     7      55.378  38.610  46.374  1.00  0.00    -0.212 N 
ATOM     72  HE  ARG     7      55.875  39.410  46.705  1.00 99.99     0.178 HD
ATOM     73  CZ  ARG     7      54.952  38.583  45.106  1.00  0.00     0.666 C 
ATOM     74  NH2 ARG     7      55.356  39.501  44.240  1.00  0.00    -0.235 N 
ATOM     75  NH1 ARG     7      54.193  37.596  44.646  1.00  0.00    -0.235 N 
ATOM     76 2HH2 ARG     7      55.982  40.225  44.524  1.00 99.99     0.174 HD
ATOM     77 1HH2 ARG     7      55.032  39.460  43.297  1.00 99.99     0.174 HD
ATOM     78 1HH1 ARG     7      53.885  37.585  43.700  1.00 99.99     0.174 HD
ATOM     79 2HH1 ARG     7      53.931  36.865  45.277  1.00 99.99     0.174 HD
ENDBRANCH  70  71
ENDBRANCH  69  70
ENDBRANCH  68  69
ENDBRANCH  47  68
ENDBRANCH  44  47
ENDBRANCH  30  43
ENDBRANCH  27  30
ENDBRANCH  25  26
BRANCH  25  80
ATOM     80  CB  ARG     5      62.960  39.209  46.585  1.00  0.00     0.034 C 
BRANCH  80  81
ATOM     81  CG  ARG     5      64.214  38.449  46.159  1.00  0.00     0.027 C 
BRANCH  81  82
ATOM     82  CD  ARG     5      65.289  38.688  47.221  1.00  0.00     0.116 C 
BRANCH  82  83
ATOM     83  NE  ARG     5      65.268  40.077  47.708  1.00  0.00    -0.212 N 
ATOM     84  CZ  ARG     5      66.016  40.562  48.709  1.00  0.00     0.666 C 
ATOM     85  NH1 ARG     5      66.929  39.822  49.324  1.00  0.00    -0.235 N 
ATOM     86  NH2 ARG     5      65.757  41.757  49.215  1.00  0.00    -0.235 N 
ATOM     87 2HH1 ARG     5      67.079  38.883  49.009  1.00 99.99     0.174 HD
ATOM     88 1HH1 ARG     5      67.473  40.199  50.067  1.00 99.99     0.174 HD
ATOM     89 2HH2 ARG     5      65.005  42.310  48.861  1.00 99.99     0.174 HD
ATOM     90 1HH2 ARG     5      66.317  42.101  49.967  1.00 99.99     0.174 HD
ATOM     91  HE  ARG     5      64.699  40.707  47.188  1.00 99.99     0.178 HD
ENDBRANCH  82  83
ENDBRANCH  81  82
ENDBRANCH  80  81
ENDBRANCH  25  80
ENDBRANCH  23  25
ENDBRANCH  20  21
BRANCH  20  92
ATOM     92  CB  ARG     4      58.868  41.002  43.198  1.00  0.00     0.034 C 
BRANCH  92  93
ATOM     93  CG  ARG     4      60.168  41.797  43.034  1.00  0.00     0.027 C 
BRANCH  93  94
ATOM     94  CD  ARG     4      60.078  42.999  42.081  1.00  0.00     0.116 C 
BRANCH  94  95
ATOM     95  NE  ARG     4      59.709  42.615  40.709  1.00  0.00    -0.212 N 
ATOM     96  CZ  ARG     4      59.206  43.426  39.767  1.00  0.00     0.666 C 
ATOM     97  NH1 ARG     4      59.000  44.717  39.986  1.00  0.00    -0.235 N 
ATOM     98  NH2 ARG     4      58.888  42.948  38.572  1.00  0.00    -0.235 N 
ATOM     99 2HH1 ARG     4      59.217  45.094  40.889  1.00 99.99     0.174 HD
ATOM    100 1HH1 ARG     4      58.626  45.304  39.273  1.00 99.99     0.174 HD
ATOM    101 2HH2 ARG     4      59.002  41.977  38.365  1.00 99.99     0.174 HD
ATOM    102 1HH2 ARG     4      58.515  43.563  37.882  1.00 99.99     0.174 HD
ATOM    103  HE  ARG     4      59.784  41.641  40.507  1.00 99.99     0.178 HD
ENDBRANCH  94  95
ENDBRANCH  93  94
ENDBRANCH  92  93
ENDBRANCH  20  92
ENDBRANCH  17  20
ENDBRANCH  15  16
BRANCH  15 104
ATOM    104  CB  ARG     3      57.265  43.943  47.429  1.00  0.00     0.034 C 
BRANCH 104 105
ATOM    105  CG  ARG     3      56.082  44.059  48.394  1.00  0.00     0.027 C 
BRANCH 105 106
ATOM    106  CD  ARG     3      55.976  42.865  49.354  1.00  0.00     0.116 C 
BRANCH 106 107
ATOM    107  NE  ARG     3      55.179  41.750  48.806  1.00  0.00    -0.212 N 
ATOM    108  CZ  ARG     3      53.873  41.531  49.011  1.00  0.00     0.666 C 
ATOM    109  NH1 ARG     3      53.131  42.355  49.739  1.00  0.00    -0.235 N 
ATOM    110  NH2 ARG     3      53.287  40.450  48.518  1.00  0.00    -0.235 N 
ATOM    111 2HH1 ARG     3      53.569  43.151  50.160  1.00 99.99     0.174 HD
ATOM    112 1HH1 ARG     3      52.162  42.178  49.879  1.00 99.99     0.174 HD
ATOM    113 1HH2 ARG     3      52.314  40.303  48.680  1.00 99.99     0.174 HD
ATOM    114 2HH2 ARG     3      53.814  39.770  48.007  1.00 99.99     0.174 HD
ATOM    115  HE  ARG     3      55.700  41.071  48.292  1.00 99.99     0.178 HD
ENDBRANCH 106 107
ENDBRANCH 105 106
ENDBRANCH 104 105
ENDBRANCH  15 104
ENDBRANCH  12  15
ENDBRANCH  10  11
BRANCH  10 116
ATOM    116  CB  ARG     2      61.841  44.242  49.174  1.00  0.00     0.034 C 
BRANCH 116 117
ATOM    117  CG  ARG     2      63.161  45.004  48.977  1.00  0.00     0.027 C 
BRANCH 117 118
ATOM    118  CD  ARG     2      63.788  45.412  50.320  1.00  0.00     0.116 C 
BRANCH 118 119
ATOM    119  NE  ARG     2      64.767  46.501  50.159  1.00  0.00    -0.212 N 
ATOM    120  CZ  ARG     2      66.050  46.382  49.785  1.00  0.00     0.666 C 
ATOM    121  NH1 ARG     2      66.587  45.214  49.450  1.00  0.00    -0.235 N 
ATOM    122  NH2 ARG     2      66.872  47.423  49.844  1.00  0.00    -0.235 N 
ATOM    123 2HH1 ARG     2      66.013  44.396  49.452  1.00 99.99     0.174 HD
ATOM    124 1HH1 ARG     2      67.545  45.156  49.184  1.00 99.99     0.174 HD
ATOM    125 1HH2 ARG     2      67.825  47.311  49.573  1.00 99.99     0.174 HD
ATOM    126 2HH2 ARG     2      66.549  48.313  50.161  1.00 99.99     0.174 HD
ATOM    127  HE  ARG     2      64.409  47.426  50.287  1.00 99.99     0.178 HD
ENDBRANCH 118 119
ENDBRANCH 117 118
ENDBRANCH 116 117
ENDBRANCH  10 116
ENDBRANCH   7  10
ENDBRANCH   5   6
BRANCH   5 128
ATOM    128  CB  ARG     1      65.109  43.245  45.606  1.00  0.00     0.042 C 
BRANCH 128 129
ATOM    129  CG  ARG     1      66.343  42.377  45.300  1.00  0.00     0.027 C 
BRANCH 129 130
ATOM    130  CD  ARG     1      67.611  42.821  46.050  1.00  0.00     0.116 C 
BRANCH 130 131
ATOM    131  NE  ARG     1      68.519  43.613  45.204  1.00  0.00    -0.212 N 
ATOM    132  CZ  ARG     1      69.558  43.157  44.491  1.00  0.00     0.666 C 
ATOM    133  NH2 ARG     1      70.258  43.991  43.734  1.00  0.00    -0.235 N 
ATOM    134  NH1 ARG     1      69.910  41.877  44.474  1.00  0.00    -0.235 N 
ATOM    135 1HH2 ARG     1      71.026  43.645  43.201  1.00 99.99     0.174 HD
ATOM    136 2HH2 ARG     1      70.025  44.962  43.699  1.00 99.99     0.174 HD
ATOM    137 1HH1 ARG     1      70.685  41.573  43.926  1.00 99.99     0.174 HD
ATOM    138 2HH1 ARG     1      69.392  41.221  45.023  1.00 99.99     0.174 HD
ATOM    139  HE  ARG     1      68.365  44.598  45.223  1.00 99.99     0.178 HD
ENDBRANCH 130 131
ENDBRANCH 129 130
ENDBRANCH 128 129
ENDBRANCH   5 128
ENDBRANCH   1   5
TORSDOF 48
ENDMDL
MODEL 5
REMARK VINA RESULT:      -4.6      2.315     10.896
REMARK WARNING: 32 MAX_TORS EXCEEDED!!!
REMARK  48 active torsions:
REMARK  status: ('A' for Active; 'I' for Inactive)
REMARK    1  A    between atoms: N_1  and  CA_2 
REMARK    2  A    between atoms: CA_2  and  C_3 
REMARK    3  A    between atoms: CA_2  and  CB_5 
REMARK       I    between atoms: C_3  and  N_20 
REMARK    4  A    between atoms: CB_5  and  CG_6 
REMARK    5  A    between atoms: CG_6  and  CD_7 
REMARK    6  A    between atoms: CD_7  and  NE_8 
REMARK       I    between atoms: NE_8  and  CZ_9 
REMARK       I    between atoms: CZ_9  and  NH2_11 
REMARK       I    between atoms: CZ_9  and  NH1_10 
REMARK    7  A    between atoms: N_20  and  CA_21 
REMARK    8  A    between atoms: CA_21  and  C_22 
REMARK    9  A    between atoms: CA_21  and  CB_24 
REMARK       I    between atoms: C_22  and  N_37 
REMARK   10  A    between atoms: CB_24  and  CG_25 
REMARK   11  A    between atoms: CG_25  and  CD_26 
REMARK   12  A    between atoms: CD_26  and  NE_27 
REMARK       I    between atoms: NE_27  and  CZ_28 
REMARK       I    between atoms: CZ_28  and  NH1_29 
REMARK       I    between atoms: CZ_28  and  NH2_30 
REMARK   13  A    between atoms: N_37  and  CA_38 
REMARK   14  A    between atoms: CA_38  and  C_39 
REMARK   15  A    between atoms: CA_38  and  CB_41 
REMARK       I    between atoms: C_39  and  N_54 
REMARK   16  A    between atoms: CB_41  and  CG_42 
REMARK   17  A    between atoms: CG_42  and  CD_43 
REMARK   18  A    between atoms: CD_43  and  NE_44 
REMARK       I    between atoms: NE_44  and  CZ_45 
REMARK       I    between atoms: CZ_45  and  NH1_46 
REMARK       I    between atoms: CZ_45  and  NH2_47 
REMARK   19  A    between atoms: N_54  and  CA_55 
REMARK   20  A    between atoms: CA_55  and  C_56 
REMARK   21  A    between atoms: CA_55  and  CB_58 
REMARK       I    between atoms: C_56  and  N_71 
REMARK   22  A    between atoms: CB_58  and  CG_59 
REMARK   23  A    between atoms: CG_59  and  CD_60 
REMARK   24  A    between atoms: CD_60  and  NE_61 
REMARK       I    between atoms: NE_61  and  CZ_62 
REMARK       I    between atoms: CZ_62  and  NH1_63 
REMARK       I    between atoms: CZ_62  and  NH2_64 
REMARK   25  A    between atoms: N_71  and  CA_72 
REMARK   26  A    between atoms: CA_72  and  C_73 
REMARK   27  A    between atoms: CA_72  and  CB_75 
REMARK       I    between atoms: C_73  and  N_88 
REMARK   28  A    between atoms: CB_75  and  CG_76 
REMARK   29  A    between atoms: CG_76  and  CD_77 
REMARK   30  A    between atoms: CD_77  and  NE_78 
REMARK       I    between atoms: NE_78  and  CZ_79 
REMARK       I    between atoms: CZ_79  and  NH1_80 
REMARK       I    between atoms: CZ_79  and  NH2_81 
REMARK   31  A    between atoms: N_88  and  CA_89 
REMARK   32  A    between atoms: CA_89  and  CB_92 
REMARK   33  A    between atoms: CA_89  and  C_90 
REMARK       I    between atoms: C_90  and  N_105 
REMARK   34  A    between atoms: CB_92  and  CG_93 
REMARK   35  A    between atoms: CG_93  and  CD_94 
REMARK   36  A    between atoms: CD_94  and  NE_95 
REMARK       I    between atoms: NE_95  and  CZ_96 
REMARK       I    between atoms: CZ_96  and  NH2_98 
REMARK       I    between atoms: CZ_96  and  NH1_97 
REMARK   37  A    between atoms: N_105  and  CA_106 
REMARK   38  A    between atoms: CA_106  and  C_107 
REMARK   39  A    between atoms: CA_106  and  CB_109 
REMARK       I    between atoms: C_107  and  N_122 
REMARK   40  A    between atoms: CB_109  and  CG_110 
REMARK   41  A    between atoms: CG_110  and  CD_111 
REMARK   42  A    between atoms: CD_111  and  NE_112 
REMARK       I    between atoms: NE_112  and  CZ_113 
REMARK       I    between atoms: CZ_113  and  NH2_115 
REMARK       I    between atoms: CZ_113  and  NH1_114 
REMARK   43  A    between atoms: N_122  and  CA_123 
REMARK   44  A    between atoms: CA_123  and  C_124 
REMARK   45  A    between atoms: CA_123  and  CB_126 
REMARK   46  A    between atoms: CB_126  and  CG_127 
REMARK   47  A    between atoms: CG_127  and  CD_128 
REMARK   48  A    between atoms: CD_128  and  NE_129 
REMARK       I    between atoms: NE_129  and  CZ_130 
REMARK       I    between atoms: CZ_130  and  NH1_131 
ROOT
ATOM      1  N   ARG     1      58.134  38.300  56.903  1.00  0.00    -0.058 N 
ATOM      2  H1  ARG     1      58.829  38.619  57.538  1.00 99.99     0.276 HD
ATOM      3  H2  ARG     1      57.533  37.661  57.349  1.00 99.99     0.276 HD
ATOM      4  H3  ARG     1      58.576  37.774  56.181  1.00 99.99     0.276 HD
ENDROOT
BRANCH   1   5
ATOM      5  CA  ARG     1      57.395  39.475  56.346  1.00  0.00     0.255 C 
BRANCH   5   6
ATOM      6  C   ARG     1      57.986  39.905  54.980  1.00  0.00     0.259 C 
ATOM      7  N   ARG     2      57.840  41.174  54.564  1.00  0.00    -0.338 N 
ATOM      8  H   ARG     2      57.316  41.829  55.112  1.00 99.99     0.164 HD
ATOM      9  O   ARG     1      58.748  39.110  54.430  1.00  0.00    -0.271 OA
BRANCH   7  10
ATOM     10  CA  ARG     2      58.347  41.755  53.290  1.00  0.00     0.159 C 
BRANCH  10  11
ATOM     11  C   ARG     2      59.834  42.173  53.234  1.00  0.00     0.251 C 
ATOM     12  N   ARG     3      60.730  41.361  53.817  1.00  0.00    -0.338 N 
ATOM     13  H   ARG     3      60.425  40.626  54.419  1.00 99.99     0.164 HD
ATOM     14  O   ARG     2      60.158  43.135  52.534  1.00  0.00    -0.271 OA
BRANCH  12  15
ATOM     15  CA  ARG     3      62.202  41.532  53.794  1.00  0.00     0.159 C 
BRANCH  15  16
ATOM     16  C   ARG     3      62.984  41.083  52.548  1.00  0.00     0.251 C 
ATOM     17  N   ARG     4      62.542  41.458  51.343  1.00  0.00    -0.338 N 
ATOM     18  H   ARG     4      61.676  41.960  51.227  1.00 99.99     0.164 HD
ATOM     19  O   ARG     3      63.901  40.268  52.674  1.00  0.00    -0.271 OA
BRANCH  17  20
ATOM     20  CA  ARG     4      63.324  41.216  50.121  1.00  0.00     0.159 C 
BRANCH  20  21
ATOM     21  C   ARG     4      63.425  42.464  49.241  1.00  0.00     0.251 C 
ATOM     22  O   ARG     4      62.443  42.781  48.561  1.00  0.00    -0.271 OA
ATOM     23  N   ARG     5      64.667  42.882  48.957  1.00  0.00    -0.338 N 
ATOM     24  H   ARG     5      65.445  42.363  49.309  1.00 99.99     0.164 HD
BRANCH  23  25
ATOM     25  CA  ARG     5      65.058  44.044  48.132  1.00  0.00     0.159 C 
BRANCH  25  26
ATOM     26  C   ARG     5      65.223  43.860  46.609  1.00  0.00     0.251 C 
ATOM     27  N   ARG     6      64.576  42.835  46.052  1.00  0.00    -0.338 N 
ATOM     28  H   ARG     6      64.139  42.147  46.629  1.00 99.99     0.164 HD
ATOM     29  O   ARG     5      66.045  44.538  45.982  1.00  0.00    -0.271 OA
BRANCH  27  30
ATOM     30  CA  ARG     6      64.493  42.568  44.603  1.00  0.00     0.159 C 
BRANCH  30  31
ATOM     31  CB  ARG     6      65.333  41.308  44.352  1.00  0.00     0.034 C 
BRANCH  31  32
ATOM     32  CG  ARG     6      65.810  40.654  45.653  1.00  0.00     0.027 C 
BRANCH  32  33
ATOM     33  CD  ARG     6      67.339  40.659  45.783  1.00  0.00     0.116 C 
BRANCH  33  34
ATOM     34  NE  ARG     6      67.990  41.608  44.852  1.00  0.00    -0.212 N 
ATOM     35  HE  ARG     6      67.862  41.394  43.888  1.00 99.99     0.178 HD
ATOM     36  CZ  ARG     6      68.671  42.725  45.147  1.00  0.00     0.666 C 
ATOM     37  NH2 ARG     6      69.318  43.371  44.186  1.00  0.00    -0.235 N 
ATOM     38  NH1 ARG     6      68.821  43.170  46.386  1.00  0.00    -0.235 N 
ATOM     39 1HH2 ARG     6      69.819  44.202  44.415  1.00 99.99     0.174 HD
ATOM     40 2HH2 ARG     6      69.314  43.025  43.252  1.00 99.99     0.174 HD
ATOM     41 2HH1 ARG     6      68.365  42.684  47.131  1.00 99.99     0.174 HD
ATOM     42 1HH1 ARG     6      69.313  44.016  46.567  1.00 99.99     0.174 HD
ENDBRANCH  33  34
ENDBRANCH  32  33
ENDBRANCH  31  32
ENDBRANCH  30  31
BRANCH  30  43
ATOM     43  C   ARG     6      63.026  42.395  44.121  1.00  0.00     0.251 C 
ATOM     44  N   ARG     7      62.280  41.555  44.834  1.00  0.00    -0.338 N 
ATOM     45  H   ARG     7      62.743  40.955  45.484  1.00 99.99     0.164 HD
ATOM     46  O   ARG     6      62.601  42.923  43.096  1.00  0.00    -0.271 OA
BRANCH  44  47
ATOM     47  CA  ARG     7      60.850  41.222  44.601  1.00  0.00     0.159 C 
BRANCH  47  48
ATOM     48  C   ARG     7      60.157  40.587  45.822  1.00  0.00     0.251 C 
ATOM     49  O   ARG     7      60.712  39.717  46.490  1.00  0.00    -0.271 OA
ATOM     50  N   ARG     8      59.047  41.226  46.195  1.00  0.00    -0.336 N 
ATOM     51  H   ARG     8      58.774  42.033  45.673  1.00 99.99     0.164 HD
BRANCH  50  52
ATOM     52  CA  ARG     8      58.114  40.959  47.312  1.00  0.00     0.168 C 
BRANCH  52  53
ATOM     53  C   ARG     8      56.816  41.706  46.963  1.00  0.00     0.206 C 
ATOM     54  OXT ARG     8      56.152  41.222  46.012  1.00 99.99    -0.646 OA
ATOM     55  O   ARG     8      56.446  42.635  47.716  1.00 99.99    -0.646 OA
ENDBRANCH  52  53
BRANCH  52  56
ATOM     56  CB  ARG     8      58.550  41.622  48.627  1.00  0.00     0.035 C 
BRANCH  56  57
ATOM     57  CG  ARG     8      59.266  40.793  49.691  1.00  0.00     0.027 C 
BRANCH  57  58
ATOM     58  CD  ARG     8      58.623  39.410  49.633  1.00  0.00     0.116 C 
BRANCH  58  59
ATOM     59  NE  ARG     8      57.372  39.339  50.408  1.00  0.00    -0.212 N 
ATOM     60  HE  ARG     8      56.654  39.970  50.131  1.00 99.99     0.178 HD
ATOM     61  CZ  ARG     8      57.147  38.494  51.419  1.00  0.00     0.666 C 
ATOM     62  NH2 ARG     8      55.938  38.404  51.945  1.00  0.00    -0.235 N 
ATOM     63  NH1 ARG     8      58.078  37.644  51.841  1.00  0.00    -0.235 N 
ATOM     64 2HH2 ARG     8      55.190  38.960  51.588  1.00 99.99     0.174 HD
ATOM     65 1HH2 ARG     8      55.775  37.766  52.697  1.00 99.99     0.174 HD
ATOM     66 1HH1 ARG     8      57.894  37.017  52.593  1.00 99.99     0.174 HD
ATOM     67 2HH1 ARG     8      58.968  37.647  51.387  1.00 99.99     0.174 HD
ENDBRANCH  58  59
ENDBRANCH  57  58
ENDBRANCH  56  57
ENDBRANCH  52  56
ENDBRANCH  50  52
ENDBRANCH  47  48
BRANCH  47  68
ATOM     68  CB  ARG     7      60.702  40.216  43.449  1.00  0.00     0.034 C 
BRANCH  68  69
ATOM     69  CG  ARG     7      59.267  39.939  43.002  1.00  0.00     0.027 C 
BRANCH  69  70
ATOM     70  CD  ARG     7      59.172  40.224  41.503  1.00  0.00     0.116 C 
BRANCH  70  71
ATOM     71  NE  ARG     7      58.741  41.609  41.254  1.00  0.00    -0.212 N 
ATOM     72  HE  ARG     7      57.767  41.779  41.390  1.00 99.99     0.178 HD
ATOM     73  CZ  ARG     7      59.523  42.604  40.820  1.00  0.00     0.666 C 
ATOM     74  NH2 ARG     7      59.067  43.846  40.769  1.00  0.00    -0.235 N 
ATOM     75  NH1 ARG     7      60.800  42.405  40.516  1.00  0.00    -0.235 N 
ATOM     76 2HH2 ARG     7      58.133  44.055  41.052  1.00 99.99     0.174 HD
ATOM     77 1HH2 ARG     7      59.669  44.576  40.449  1.00 99.99     0.174 HD
ATOM     78 1HH1 ARG     7      61.373  43.153  40.198  1.00 99.99     0.174 HD
ATOM     79 2HH1 ARG     7      61.171  41.480  40.608  1.00 99.99     0.174 HD
ENDBRANCH  70  71
ENDBRANCH  69  70
ENDBRANCH  68  69
ENDBRANCH  47  68
ENDBRANCH  44  47
ENDBRANCH  30  43
ENDBRANCH  27  30
ENDBRANCH  25  26
BRANCH  25  80
ATOM     80  CB  ARG     5      66.377  44.618  48.678  1.00  0.00     0.034 C 
BRANCH  80  81
ATOM     81  CG  ARG     5      66.334  46.104  49.020  1.00  0.00     0.027 C 
BRANCH  81  82
ATOM     82  CD  ARG     5      65.359  46.288  50.186  1.00  0.00     0.116 C 
BRANCH  82  83
ATOM     83  NE  ARG     5      64.076  46.851  49.733  1.00  0.00    -0.212 N 
ATOM     84  CZ  ARG     5      62.866  46.333  49.989  1.00  0.00     0.666 C 
ATOM     85  NH1 ARG     5      62.709  45.268  50.764  1.00  0.00    -0.235 N 
ATOM     86  NH2 ARG     5      61.800  46.785  49.349  1.00  0.00    -0.235 N 
ATOM     87 2HH1 ARG     5      63.518  44.860  51.190  1.00 99.99     0.174 HD
ATOM     88 1HH1 ARG     5      61.803  44.897  50.940  1.00 99.99     0.174 HD
ATOM     89 2HH2 ARG     5      61.882  47.512  48.669  1.00 99.99     0.174 HD
ATOM     90 1HH2 ARG     5      60.907  46.384  49.543  1.00 99.99     0.174 HD
ATOM     91  HE  ARG     5      64.132  47.727  49.264  1.00 99.99     0.178 HD
ENDBRANCH  82  83
ENDBRANCH  81  82
ENDBRANCH  80  81
ENDBRANCH  25  80
ENDBRANCH  23  25
ENDBRANCH  20  21
BRANCH  20  92
ATOM     92  CB  ARG     4      62.876  39.955  49.352  1.00  0.00     0.034 C 
BRANCH  92  93
ATOM     93  CG  ARG     4      63.940  38.864  49.515  1.00  0.00     0.027 C 
BRANCH  93  94
ATOM     94  CD  ARG     4      64.440  38.244  48.202  1.00  0.00     0.116 C 
BRANCH  94  95
ATOM     95  NE  ARG     4      63.410  38.223  47.150  1.00  0.00    -0.212 N 
ATOM     96  CZ  ARG     4      63.533  37.676  45.932  1.00  0.00     0.666 C 
ATOM     97  NH1 ARG     4      64.640  37.057  45.545  1.00  0.00    -0.235 N 
ATOM     98  NH2 ARG     4      62.535  37.749  45.062  1.00  0.00    -0.235 N 
ATOM     99 2HH1 ARG     4      65.413  37.008  46.183  1.00 99.99     0.174 HD
ATOM    100 1HH1 ARG     4      64.712  36.656  44.636  1.00 99.99     0.174 HD
ATOM    101 2HH2 ARG     4      61.690  38.225  45.296  1.00 99.99     0.174 HD
ATOM    102 1HH2 ARG     4      62.642  37.338  44.160  1.00 99.99     0.174 HD
ATOM    103  HE  ARG     4      62.578  38.729  47.362  1.00 99.99     0.178 HD
ENDBRANCH  94  95
ENDBRANCH  93  94
ENDBRANCH  92  93
ENDBRANCH  20  92
ENDBRANCH  17  20
ENDBRANCH  15  16
BRANCH  15 104
ATOM    104  CB  ARG     3      62.861  40.862  55.013  1.00  0.00     0.034 C 
BRANCH 104 105
ATOM    105  CG  ARG     3      61.880  40.038  55.851  1.00  0.00     0.027 C 
BRANCH 105 106
ATOM    106  CD  ARG     3      62.269  38.555  55.940  1.00  0.00     0.116 C 
BRANCH 106 107
ATOM    107  NE  ARG     3      62.969  38.066  54.735  1.00  0.00    -0.212 N 
ATOM    108  CZ  ARG     3      62.398  37.533  53.648  1.00  0.00     0.666 C 
ATOM    109  NH1 ARG     3      61.082  37.415  53.534  1.00  0.00    -0.235 N 
ATOM    110  NH2 ARG     3      63.145  37.065  52.657  1.00  0.00    -0.235 N 
ATOM    111 2HH1 ARG     3      60.505  37.718  54.294  1.00 99.99     0.174 HD
ATOM    112 1HH1 ARG     3      60.674  37.017  52.717  1.00 99.99     0.174 HD
ATOM    113 1HH2 ARG     3      62.703  36.671  51.855  1.00 99.99     0.174 HD
ATOM    114 2HH2 ARG     3      64.142  37.081  52.717  1.00 99.99     0.174 HD
ATOM    115  HE  ARG     3      63.965  38.084  54.789  1.00 99.99     0.178 HD
ENDBRANCH 106 107
ENDBRANCH 105 106
ENDBRANCH 104 105
ENDBRANCH  15 104
ENDBRANCH  12  15
ENDBRANCH  10  11
BRANCH  10 116
ATOM    116  CB  ARG     2      57.423  42.880  52.778  1.00  0.00     0.034 C 
BRANCH 116 117
ATOM    117  CG  ARG     2      56.755  42.564  51.430  1.00  0.00     0.027 C 
BRANCH 117 118
ATOM    118  CD  ARG     2      55.431  43.327  51.260  1.00  0.00     0.116 C 
BRANCH 118 119
ATOM    119  NE  ARG     2      54.698  42.889  50.059  1.00  0.00    -0.212 N 
ATOM    120  CZ  ARG     2      53.981  41.764  49.919  1.00  0.00     0.666 C 
ATOM    121  NH1 ARG     2      53.802  40.907  50.917  1.00  0.00    -0.235 N 
ATOM    122  NH2 ARG     2      53.512  41.405  48.730  1.00  0.00    -0.235 N 
ATOM    123 2HH1 ARG     2      54.192  41.114  51.813  1.00 99.99     0.174 HD
ATOM    124 1HH1 ARG     2      53.270  40.075  50.779  1.00 99.99     0.174 HD
ATOM    125 1HH2 ARG     2      52.991  40.558  48.643  1.00 99.99     0.174 HD
ATOM    126 2HH2 ARG     2      53.677  41.968  47.922  1.00 99.99     0.174 HD
ATOM    127  HE  ARG     2      54.693  43.536  49.296  1.00 99.99     0.178 HD
ENDBRANCH 118 119
ENDBRANCH 117 118
ENDBRANCH 116 117
ENDBRANCH  10 116
ENDBRANCH   7  10
ENDBRANCH   5   6
BRANCH   5 128
ATOM    128  CB  ARG     1      57.261  40.598  57.388  1.00  0.00     0.042 C 
BRANCH 128 129
ATOM    129  CG  ARG     1      58.130  40.345  58.634  1.00  0.00     0.027 C 
BRANCH 129 130
ATOM    130  CD  ARG     1      58.006  41.443  59.704  1.00  0.00     0.116 C 
BRANCH 130 131
ATOM    131  NE  ARG     1      57.769  42.775  59.122  1.00  0.00    -0.212 N 
ATOM    132  CZ  ARG     1      56.986  43.743  59.618  1.00  0.00     0.666 C 
ATOM    133  NH2 ARG     1      56.912  44.914  59.001  1.00  0.00    -0.235 N 
ATOM    134  NH1 ARG     1      56.294  43.601  60.742  1.00  0.00    -0.235 N 
ATOM    135 1HH2 ARG     1      56.333  45.633  59.378  1.00 99.99     0.174 HD
ATOM    136 2HH2 ARG     1      57.425  45.079  58.160  1.00 99.99     0.174 HD
ATOM    137 1HH1 ARG     1      55.728  44.346  61.085  1.00 99.99     0.174 HD
ATOM    138 2HH1 ARG     1      56.342  42.734  61.239  1.00 99.99     0.174 HD
ATOM    139  HE  ARG     1      58.198  42.932  58.236  1.00 99.99     0.178 HD
ENDBRANCH 130 131
ENDBRANCH 129 130
ENDBRANCH 128 129
ENDBRANCH   5 128
ENDBRANCH   1   5
TORSDOF 48
ENDMDL
MODEL 6
REMARK VINA RESULT:      -4.5      2.293      7.475
REMARK WARNING: 32 MAX_TORS EXCEEDED!!!
REMARK  48 active torsions:
REMARK  status: ('A' for Active; 'I' for Inactive)
REMARK    1  A    between atoms: N_1  and  CA_2 
REMARK    2  A    between atoms: CA_2  and  C_3 
REMARK    3  A    between atoms: CA_2  and  CB_5 
REMARK       I    between atoms: C_3  and  N_20 
REMARK    4  A    between atoms: CB_5  and  CG_6 
REMARK    5  A    between atoms: CG_6  and  CD_7 
REMARK    6  A    between atoms: CD_7  and  NE_8 
REMARK       I    between atoms: NE_8  and  CZ_9 
REMARK       I    between atoms: CZ_9  and  NH2_11 
REMARK       I    between atoms: CZ_9  and  NH1_10 
REMARK    7  A    between atoms: N_20  and  CA_21 
REMARK    8  A    between atoms: CA_21  and  C_22 
REMARK    9  A    between atoms: CA_21  and  CB_24 
REMARK       I    between atoms: C_22  and  N_37 
REMARK   10  A    between atoms: CB_24  and  CG_25 
REMARK   11  A    between atoms: CG_25  and  CD_26 
REMARK   12  A    between atoms: CD_26  and  NE_27 
REMARK       I    between atoms: NE_27  and  CZ_28 
REMARK       I    between atoms: CZ_28  and  NH1_29 
REMARK       I    between atoms: CZ_28  and  NH2_30 
REMARK   13  A    between atoms: N_37  and  CA_38 
REMARK   14  A    between atoms: CA_38  and  C_39 
REMARK   15  A    between atoms: CA_38  and  CB_41 
REMARK       I    between atoms: C_39  and  N_54 
REMARK   16  A    between atoms: CB_41  and  CG_42 
REMARK   17  A    between atoms: CG_42  and  CD_43 
REMARK   18  A    between atoms: CD_43  and  NE_44 
REMARK       I    between atoms: NE_44  and  CZ_45 
REMARK       I    between atoms: CZ_45  and  NH1_46 
REMARK       I    between atoms: CZ_45  and  NH2_47 
REMARK   19  A    between atoms: N_54  and  CA_55 
REMARK   20  A    between atoms: CA_55  and  C_56 
REMARK   21  A    between atoms: CA_55  and  CB_58 
REMARK       I    between atoms: C_56  and  N_71 
REMARK   22  A    between atoms: CB_58  and  CG_59 
REMARK   23  A    between atoms: CG_59  and  CD_60 
REMARK   24  A    between atoms: CD_60  and  NE_61 
REMARK       I    between atoms: NE_61  and  CZ_62 
REMARK       I    between atoms: CZ_62  and  NH1_63 
REMARK       I    between atoms: CZ_62  and  NH2_64 
REMARK   25  A    between atoms: N_71  and  CA_72 
REMARK   26  A    between atoms: CA_72  and  C_73 
REMARK   27  A    between atoms: CA_72  and  CB_75 
REMARK       I    between atoms: C_73  and  N_88 
REMARK   28  A    between atoms: CB_75  and  CG_76 
REMARK   29  A    between atoms: CG_76  and  CD_77 
REMARK   30  A    between atoms: CD_77  and  NE_78 
REMARK       I    between atoms: NE_78  and  CZ_79 
REMARK       I    between atoms: CZ_79  and  NH1_80 
REMARK       I    between atoms: CZ_79  and  NH2_81 
REMARK   31  A    between atoms: N_88  and  CA_89 
REMARK   32  A    between atoms: CA_89  and  CB_92 
REMARK   33  A    between atoms: CA_89  and  C_90 
REMARK       I    between atoms: C_90  and  N_105 
REMARK   34  A    between atoms: CB_92  and  CG_93 
REMARK   35  A    between atoms: CG_93  and  CD_94 
REMARK   36  A    between atoms: CD_94  and  NE_95 
REMARK       I    between atoms: NE_95  and  CZ_96 
REMARK       I    between atoms: CZ_96  and  NH2_98 
REMARK       I    between atoms: CZ_96  and  NH1_97 
REMARK   37  A    between atoms: N_105  and  CA_106 
REMARK   38  A    between atoms: CA_106  and  C_107 
REMARK   39  A    between atoms: CA_106  and  CB_109 
REMARK       I    between atoms: C_107  and  N_122 
REMARK   40  A    between atoms: CB_109  and  CG_110 
REMARK   41  A    between atoms: CG_110  and  CD_111 
REMARK   42  A    between atoms: CD_111  and  NE_112 
REMARK       I    between atoms: NE_112  and  CZ_113 
REMARK       I    between atoms: CZ_113  and  NH2_115 
REMARK       I    between atoms: CZ_113  and  NH1_114 
REMARK   43  A    between atoms: N_122  and  CA_123 
REMARK   44  A    between atoms: CA_123  and  C_124 
REMARK   45  A    between atoms: CA_123  and  CB_126 
REMARK   46  A    between atoms: CB_126  and  CG_127 
REMARK   47  A    between atoms: CG_127  and  CD_128 
REMARK   48  A    between atoms: CD_128  and  NE_129 
REMARK       I    between atoms: NE_129  and  CZ_130 
REMARK       I    between atoms: CZ_130  and  NH1_131 
ROOT
ATOM      1  N   ARG     1      66.299  39.136  43.908  1.00  0.00    -0.058 N 
ATOM      2  H1  ARG     1      66.685  38.241  43.717  1.00 99.99     0.276 HD
ATOM      3  H2  ARG     1      65.518  39.300  43.331  1.00 99.99     0.276 HD
ATOM      4  H3  ARG     1      66.960  39.834  43.648  1.00 99.99     0.276 HD
ENDROOT
BRANCH   1   5
ATOM      5  CA  ARG     1      65.953  39.227  45.361  1.00  0.00     0.255 C 
BRANCH   5   6
ATOM      6  C   ARG     1      64.957  40.385  45.622  1.00  0.00     0.259 C 
ATOM      7  N   ARG     2      65.225  41.610  45.139  1.00  0.00    -0.338 N 
ATOM      8  H   ARG     2      66.081  41.787  44.651  1.00 99.99     0.164 HD
ATOM      9  O   ARG     1      63.859  40.079  46.084  1.00  0.00    -0.271 OA
BRANCH   7  10
ATOM     10  CA  ARG     2      64.379  42.827  45.290  1.00  0.00     0.159 C 
BRANCH  10  11
ATOM     11  C   ARG     2      64.224  43.423  46.708  1.00  0.00     0.251 C 
ATOM     12  N   ARG     3      63.276  42.901  47.500  1.00  0.00    -0.338 N 
ATOM     13  H   ARG     3      62.583  42.290  47.120  1.00 99.99     0.164 HD
ATOM     14  O   ARG     2      65.063  44.232  47.110  1.00  0.00    -0.271 OA
BRANCH  12  15
ATOM     15  CA  ARG     3      63.028  43.264  48.916  1.00  0.00     0.159 C 
BRANCH  15  16
ATOM     16  C   ARG     3      62.722  42.147  49.928  1.00  0.00     0.251 C 
ATOM     17  N   ARG     4      62.089  42.465  51.062  1.00  0.00    -0.338 N 
ATOM     18  H   ARG     4      61.876  43.419  51.303  1.00 99.99     0.164 HD
ATOM     19  O   ARG     3      63.198  41.024  49.747  1.00  0.00    -0.271 OA
BRANCH  17  20
ATOM     20  CA  ARG     4      61.611  41.434  51.997  1.00  0.00     0.159 C 
BRANCH  20  21
ATOM     21  C   ARG     4      60.093  41.485  52.187  1.00  0.00     0.251 C 
ATOM     22  O   ARG     4      59.650  41.601  53.335  1.00  0.00    -0.271 OA
ATOM     23  N   ARG     5      59.359  40.999  51.175  1.00  0.00    -0.338 N 
ATOM     24  H   ARG     5      59.826  40.621  50.375  1.00 99.99     0.164 HD
BRANCH  23  25
ATOM     25  CA  ARG     5      57.886  40.916  51.090  1.00  0.00     0.159 C 
BRANCH  25  26
ATOM     26  C   ARG     5      57.248  39.980  50.043  1.00  0.00     0.251 C 
ATOM     27  N   ARG     6      55.918  39.885  50.048  1.00  0.00    -0.338 N 
ATOM     28  H   ARG     6      55.391  40.286  50.797  1.00 99.99     0.164 HD
ATOM     29  O   ARG     5      57.957  39.241  49.350  1.00  0.00    -0.271 OA
BRANCH  27  30
ATOM     30  CA  ARG     6      55.112  39.156  49.049  1.00  0.00     0.159 C 
BRANCH  30  31
ATOM     31  CB  ARG     6      53.757  38.878  49.713  1.00  0.00     0.034 C 
BRANCH  31  32
ATOM     32  CG  ARG     6      53.191  37.505  49.335  1.00  0.00     0.027 C 
BRANCH  32  33
ATOM     33  CD  ARG     6      52.102  37.599  48.257  1.00  0.00     0.116 C 
BRANCH  33  34
ATOM     34  NE  ARG     6      52.656  37.634  46.885  1.00  0.00    -0.212 N 
ATOM     35  HE  ARG     6      52.600  38.522  46.439  1.00 99.99     0.178 HD
ATOM     36  CZ  ARG     6      53.258  36.645  46.208  1.00  0.00     0.666 C 
ATOM     37  NH2 ARG     6      53.554  36.815  44.926  1.00  0.00    -0.235 N 
ATOM     38  NH1 ARG     6      53.484  35.449  46.730  1.00  0.00    -0.235 N 
ATOM     39 1HH2 ARG     6      54.004  36.075  44.432  1.00 99.99     0.174 HD
ATOM     40 2HH2 ARG     6      53.320  37.664  44.460  1.00 99.99     0.174 HD
ATOM     41 2HH1 ARG     6      53.243  35.288  47.687  1.00 99.99     0.174 HD
ATOM     42 1HH1 ARG     6      53.954  34.745  46.207  1.00 99.99     0.174 HD
ENDBRANCH  33  34
ENDBRANCH  32  33
ENDBRANCH  31  32
ENDBRANCH  30  31
BRANCH  30  43
ATOM     43  C   ARG     6      54.958  39.955  47.724  1.00  0.00     0.251 C 
ATOM     44  N   ARG     7      56.044  40.013  46.956  1.00  0.00    -0.338 N 
ATOM     45  H   ARG     7      56.914  39.727  47.354  1.00 99.99     0.164 HD
ATOM     46  O   ARG     6      53.935  40.572  47.440  1.00  0.00    -0.271 OA
BRANCH  44  47
ATOM     47  CA  ARG     7      56.164  40.693  45.641  1.00  0.00     0.159 C 
BRANCH  47  48
ATOM     48  C   ARG     7      56.242  39.721  44.447  1.00  0.00     0.251 C 
ATOM     49  O   ARG     7      55.270  39.053  44.103  1.00  0.00    -0.271 OA
ATOM     50  N   ARG     8      57.352  39.860  43.720  1.00  0.00    -0.336 N 
ATOM     51  H   ARG     8      58.010  40.559  43.999  1.00 99.99     0.164 HD
BRANCH  50  52
ATOM     52  CA  ARG     8      57.797  39.149  42.501  1.00  0.00     0.168 C 
BRANCH  52  53
ATOM     53  C   ARG     8      59.255  38.736  42.765  1.00  0.00     0.206 C 
ATOM     54  OXT ARG     8      59.765  39.193  43.819  1.00 99.99    -0.646 OA
ATOM     55  O   ARG     8      59.776  37.885  42.009  1.00 99.99    -0.646 OA
ENDBRANCH  52  53
BRANCH  52  56
ATOM     56  CB  ARG     8      57.917  40.073  41.280  1.00  0.00     0.035 C 
BRANCH  56  57
ATOM     57  CG  ARG     8      58.020  41.583  41.483  1.00  0.00     0.027 C 
BRANCH  57  58
ATOM     58  CD  ARG     8      59.363  41.985  40.880  1.00  0.00     0.116 C 
BRANCH  58  59
ATOM     59  NE  ARG     8      59.247  42.395  39.470  1.00  0.00    -0.212 N 
ATOM     60  HE  ARG     8      59.272  41.658  38.801  1.00 99.99     0.178 HD
ATOM     61  CZ  ARG     8      59.100  43.655  39.051  1.00  0.00     0.666 C 
ATOM     62  NH2 ARG     8      58.848  43.901  37.776  1.00  0.00    -0.235 N 
ATOM     63  NH1 ARG     8      59.079  44.678  39.900  1.00  0.00    -0.235 N 
ATOM     64 2HH2 ARG     8      58.761  43.149  37.126  1.00 99.99     0.174 HD
ATOM     65 1HH2 ARG     8      58.733  44.845  37.471  1.00 99.99     0.174 HD
ATOM     66 1HH1 ARG     8      58.964  45.612  39.573  1.00 99.99     0.174 HD
ATOM     67 2HH1 ARG     8      59.181  44.489  40.877  1.00 99.99     0.174 HD
ENDBRANCH  58  59
ENDBRANCH  57  58
ENDBRANCH  56  57
ENDBRANCH  52  56
ENDBRANCH  50  52
ENDBRANCH  47  48
BRANCH  47  68
ATOM     68  CB  ARG     7      57.435  41.553  45.580  1.00  0.00     0.034 C 
BRANCH  68  69
ATOM     69  CG  ARG     7      57.709  42.406  46.819  1.00  0.00     0.027 C 
BRANCH  69  70
ATOM     70  CD  ARG     7      59.224  42.539  46.979  1.00  0.00     0.116 C 
BRANCH  70  71
ATOM     71  NE  ARG     7      59.754  41.499  47.876  1.00  0.00    -0.212 N 
ATOM     72  HE  ARG     7      59.555  41.635  48.844  1.00 99.99     0.178 HD
ATOM     73  CZ  ARG     7      60.504  40.455  47.503  1.00  0.00     0.666 C 
ATOM     74  NH2 ARG     7      60.806  39.500  48.370  1.00  0.00    -0.235 N 
ATOM     75  NH1 ARG     7      60.892  40.289  46.245  1.00  0.00    -0.235 N 
ATOM     76 2HH2 ARG     7      60.479  39.548  49.311  1.00 99.99     0.174 HD
ATOM     77 1HH2 ARG     7      61.361  38.725  48.070  1.00 99.99     0.174 HD
ATOM     78 1HH1 ARG     7      61.446  39.507  45.978  1.00 99.99     0.174 HD
ATOM     79 2HH1 ARG     7      60.619  40.975  45.569  1.00 99.99     0.174 HD
ENDBRANCH  70  71
ENDBRANCH  69  70
ENDBRANCH  68  69
ENDBRANCH  47  68
ENDBRANCH  44  47
ENDBRANCH  30  43
ENDBRANCH  27  30
ENDBRANCH  25  26
BRANCH  25  80
ATOM     80  CB  ARG     5      57.323  42.328  50.859  1.00  0.00     0.034 C 
BRANCH  80  81
ATOM     81  CG  ARG     5      56.327  42.800  51.915  1.00  0.00     0.027 C 
BRANCH  81  82
ATOM     82  CD  ARG     5      56.342  41.784  53.059  1.00  0.00     0.116 C 
BRANCH  82  83
ATOM     83  NE  ARG     5      55.004  41.217  53.295  1.00  0.00    -0.212 N 
ATOM     84  CZ  ARG     5      54.725  39.914  53.438  1.00  0.00     0.666 C 
ATOM     85  NH1 ARG     5      55.678  38.991  53.454  1.00  0.00    -0.235 N 
ATOM     86  NH2 ARG     5      53.470  39.495  53.419  1.00  0.00    -0.235 N 
ATOM     87 2HH1 ARG     5      56.633  39.284  53.383  1.00 99.99     0.174 HD
ATOM     88 1HH1 ARG     5      55.451  38.028  53.558  1.00 99.99     0.174 HD
ATOM     89 2HH2 ARG     5      52.718  40.141  53.296  1.00 99.99     0.174 HD
ATOM     90 1HH2 ARG     5      53.278  38.520  53.517  1.00 99.99     0.174 HD
ATOM     91  HE  ARG     5      54.273  41.880  53.431  1.00 99.99     0.178 HD
ENDBRANCH  82  83
ENDBRANCH  81  82
ENDBRANCH  80  81
ENDBRANCH  25  80
ENDBRANCH  23  25
ENDBRANCH  20  21
BRANCH  20  92
ATOM     92  CB  ARG     4      62.396  41.404  53.324  1.00  0.00     0.034 C 
BRANCH  92  93
ATOM     93  CG  ARG     4      62.850  39.967  53.605  1.00  0.00     0.027 C 
BRANCH  93  94
ATOM     94  CD  ARG     4      62.698  38.996  52.425  1.00  0.00     0.116 C 
BRANCH  94  95
ATOM     95  NE  ARG     4      62.960  37.596  52.797  1.00  0.00    -0.212 N 
ATOM     96  CZ  ARG     4      64.126  36.946  52.664  1.00  0.00     0.666 C 
ATOM     97  NH1 ARG     4      65.209  37.534  52.177  1.00  0.00    -0.235 N 
ATOM     98  NH2 ARG     4      64.224  35.671  53.013  1.00  0.00    -0.235 N 
ATOM     99 2HH1 ARG     4      65.150  38.493  51.890  1.00 99.99     0.174 HD
ATOM    100 1HH1 ARG     4      66.066  37.034  52.087  1.00 99.99     0.174 HD
ATOM    101 2HH2 ARG     4      63.430  35.176  53.362  1.00 99.99     0.174 HD
ATOM    102 1HH2 ARG     4      65.096  35.200  52.908  1.00 99.99     0.174 HD
ATOM    103  HE  ARG     4      62.163  37.085  53.111  1.00 99.99     0.178 HD
ENDBRANCH  94  95
ENDBRANCH  93  94
ENDBRANCH  92  93
ENDBRANCH  20  92
ENDBRANCH  17  20
ENDBRANCH  15  16
BRANCH  15 104
ATOM    104  CB  ARG     3      61.905  44.309  49.036  1.00  0.00     0.034 C 
BRANCH 104 105
ATOM    105  CG  ARG     3      62.413  45.696  49.439  1.00  0.00     0.027 C 
BRANCH 105 106
ATOM    106  CD  ARG     3      63.524  45.640  50.498  1.00  0.00     0.116 C 
BRANCH 106 107
ATOM    107  NE  ARG     3      64.606  46.615  50.256  1.00  0.00    -0.212 N 
ATOM    108  CZ  ARG     3      65.840  46.339  49.815  1.00  0.00     0.666 C 
ATOM    109  NH1 ARG     3      66.214  45.103  49.512  1.00  0.00    -0.235 N 
ATOM    110  NH2 ARG     3      66.746  47.300  49.705  1.00  0.00    -0.235 N 
ATOM    111 2HH1 ARG     3      65.558  44.358  49.636  1.00 99.99     0.174 HD
ATOM    112 1HH1 ARG     3      67.136  44.916  49.184  1.00 99.99     0.174 HD
ATOM    113 1HH2 ARG     3      67.660  47.076  49.375  1.00 99.99     0.174 HD
ATOM    114 2HH2 ARG     3      66.530  48.239  49.972  1.00 99.99     0.174 HD
ATOM    115  HE  ARG     3      64.393  47.555  50.517  1.00 99.99     0.178 HD
ENDBRANCH 106 107
ENDBRANCH 105 106
ENDBRANCH 104 105
ENDBRANCH  15 104
ENDBRANCH  12  15
ENDBRANCH  10  11
BRANCH  10 116
ATOM    116  CB  ARG     2      63.012  42.651  44.597  1.00  0.00     0.034 C 
BRANCH 116 117
ATOM    117  CG  ARG     2      63.069  42.807  43.069  1.00  0.00     0.027 C 
BRANCH 117 118
ATOM    118  CD  ARG     2      62.488  41.579  42.350  1.00  0.00     0.116 C 
BRANCH 118 119
ATOM    119  NE  ARG     2      62.490  40.386  43.215  1.00  0.00    -0.212 N 
ATOM    120  CZ  ARG     2      62.924  39.159  42.892  1.00  0.00     0.666 C 
ATOM    121  NH1 ARG     2      63.476  38.886  41.715  1.00  0.00    -0.235 N 
ATOM    122  NH2 ARG     2      62.712  38.130  43.705  1.00  0.00    -0.235 N 
ATOM    123 2HH1 ARG     2      63.597  39.624  41.052  1.00 99.99     0.174 HD
ATOM    124 1HH1 ARG     2      63.782  37.963  41.502  1.00 99.99     0.174 HD
ATOM    125 1HH2 ARG     2      63.032  37.223  43.442  1.00 99.99     0.174 HD
ATOM    126 2HH2 ARG     2      62.233  38.254  44.573  1.00 99.99     0.174 HD
ATOM    127  HE  ARG     2      62.189  40.535  44.157  1.00 99.99     0.178 HD
ENDBRANCH 118 119
ENDBRANCH 117 118
ENDBRANCH 116 117
ENDBRANCH  10 116
ENDBRANCH   7  10
ENDBRANCH   5   6
BRANCH   5 128
ATOM    128  CB  ARG     1      67.216  39.235  46.238  1.00  0.00     0.042 C 
BRANCH 128 129
ATOM    129  CG  ARG     1      66.902  39.557  47.711  1.00  0.00     0.027 C 
BRANCH 129 130
ATOM    130  CD  ARG     1      67.755  40.701  48.287  1.00  0.00     0.116 C 
BRANCH 130 131
ATOM    131  NE  ARG     1      67.451  42.000  47.664  1.00  0.00    -0.212 N 
ATOM    132  CZ  ARG     1      68.318  42.828  47.065  1.00  0.00     0.666 C 
ATOM    133  NH2 ARG     1      67.883  43.949  46.505  1.00  0.00    -0.235 N 
ATOM    134  NH1 ARG     1      69.615  42.562  46.969  1.00  0.00    -0.235 N 
ATOM    135 1HH2 ARG     1      68.531  44.557  46.055  1.00 99.99     0.174 HD
ATOM    136 2HH2 ARG     1      66.914  44.189  46.535  1.00 99.99     0.174 HD
ATOM    137 1HH1 ARG     1      70.229  43.199  46.510  1.00 99.99     0.174 HD
ATOM    138 2HH1 ARG     1      69.972  41.718  47.369  1.00 99.99     0.174 HD
ATOM    139  HE  ARG     1      66.508  42.305  47.761  1.00 99.99     0.178 HD
ENDBRANCH 130 131
ENDBRANCH 129 130
ENDBRANCH 128 129
ENDBRANCH   5 128
ENDBRANCH   1   5
TORSDOF 48
ENDMDL
MODEL 7
REMARK VINA RESULT:      -4.5      2.483     10.816
REMARK WARNING: 32 MAX_TORS EXCEEDED!!!
REMARK  48 active torsions:
REMARK  status: ('A' for Active; 'I' for Inactive)
REMARK    1  A    between atoms: N_1  and  CA_2 
REMARK    2  A    between atoms: CA_2  and  C_3 
REMARK    3  A    between atoms: CA_2  and  CB_5 
REMARK       I    between atoms: C_3  and  N_20 
REMARK    4  A    between atoms: CB_5  and  CG_6 
REMARK    5  A    between atoms: CG_6  and  CD_7 
REMARK    6  A    between atoms: CD_7  and  NE_8 
REMARK       I    between atoms: NE_8  and  CZ_9 
REMARK       I    between atoms: CZ_9  and  NH2_11 
REMARK       I    between atoms: CZ_9  and  NH1_10 
REMARK    7  A    between atoms: N_20  and  CA_21 
REMARK    8  A    between atoms: CA_21  and  C_22 
REMARK    9  A    between atoms: CA_21  and  CB_24 
REMARK       I    between atoms: C_22  and  N_37 
REMARK   10  A    between atoms: CB_24  and  CG_25 
REMARK   11  A    between atoms: CG_25  and  CD_26 
REMARK   12  A    between atoms: CD_26  and  NE_27 
REMARK       I    between atoms: NE_27  and  CZ_28 
REMARK       I    between atoms: CZ_28  and  NH1_29 
REMARK       I    between atoms: CZ_28  and  NH2_30 
REMARK   13  A    between atoms: N_37  and  CA_38 
REMARK   14  A    between atoms: CA_38  and  C_39 
REMARK   15  A    between atoms: CA_38  and  CB_41 
REMARK       I    between atoms: C_39  and  N_54 
REMARK   16  A    between atoms: CB_41  and  CG_42 
REMARK   17  A    between atoms: CG_42  and  CD_43 
REMARK   18  A    between atoms: CD_43  and  NE_44 
REMARK       I    between atoms: NE_44  and  CZ_45 
REMARK       I    between atoms: CZ_45  and  NH1_46 
REMARK       I    between atoms: CZ_45  and  NH2_47 
REMARK   19  A    between atoms: N_54  and  CA_55 
REMARK   20  A    between atoms: CA_55  and  C_56 
REMARK   21  A    between atoms: CA_55  and  CB_58 
REMARK       I    between atoms: C_56  and  N_71 
REMARK   22  A    between atoms: CB_58  and  CG_59 
REMARK   23  A    between atoms: CG_59  and  CD_60 
REMARK   24  A    between atoms: CD_60  and  NE_61 
REMARK       I    between atoms: NE_61  and  CZ_62 
REMARK       I    between atoms: CZ_62  and  NH1_63 
REMARK       I    between atoms: CZ_62  and  NH2_64 
REMARK   25  A    between atoms: N_71  and  CA_72 
REMARK   26  A    between atoms: CA_72  and  C_73 
REMARK   27  A    between atoms: CA_72  and  CB_75 
REMARK       I    between atoms: C_73  and  N_88 
REMARK   28  A    between atoms: CB_75  and  CG_76 
REMARK   29  A    between atoms: CG_76  and  CD_77 
REMARK   30  A    between atoms: CD_77  and  NE_78 
REMARK       I    between atoms: NE_78  and  CZ_79 
REMARK       I    between atoms: CZ_79  and  NH1_80 
REMARK       I    between atoms: CZ_79  and  NH2_81 
REMARK   31  A    between atoms: N_88  and  CA_89 
REMARK   32  A    between atoms: CA_89  and  CB_92 
REMARK   33  A    between atoms: CA_89  and  C_90 
REMARK       I    between atoms: C_90  and  N_105 
REMARK   34  A    between atoms: CB_92  and  CG_93 
REMARK   35  A    between atoms: CG_93  and  CD_94 
REMARK   36  A    between atoms: CD_94  and  NE_95 
REMARK       I    between atoms: NE_95  and  CZ_96 
REMARK       I    between atoms: CZ_96  and  NH2_98 
REMARK       I    between atoms: CZ_96  and  NH1_97 
REMARK   37  A    between atoms: N_105  and  CA_106 
REMARK   38  A    between atoms: CA_106  and  C_107 
REMARK   39  A    between atoms: CA_106  and  CB_109 
REMARK       I    between atoms: C_107  and  N_122 
REMARK   40  A    between atoms: CB_109  and  CG_110 
REMARK   41  A    between atoms: CG_110  and  CD_111 
REMARK   42  A    between atoms: CD_111  and  NE_112 
REMARK       I    between atoms: NE_112  and  CZ_113 
REMARK       I    between atoms: CZ_113  and  NH2_115 
REMARK       I    between atoms: CZ_113  and  NH1_114 
REMARK   43  A    between atoms: N_122  and  CA_123 
REMARK   44  A    between atoms: CA_123  and  C_124 
REMARK   45  A    between atoms: CA_123  and  CB_126 
REMARK   46  A    between atoms: CB_126  and  CG_127 
REMARK   47  A    between atoms: CG_127  and  CD_128 
REMARK   48  A    between atoms: CD_128  and  NE_129 
REMARK       I    between atoms: NE_129  and  CZ_130 
REMARK       I    between atoms: CZ_130  and  NH1_131 
ROOT
ATOM      1  N   ARG     1      53.061  40.422  48.494  1.00  0.00    -0.058 N 
ATOM      2  H1  ARG     1      53.396  41.110  49.129  1.00 99.99     0.276 HD
ATOM      3  H2  ARG     1      52.748  40.848  47.664  1.00 99.99     0.276 HD
ATOM      4  H3  ARG     1      52.251  39.993  48.883  1.00 99.99     0.276 HD
ENDROOT
BRANCH   1   5
ATOM      5  CA  ARG     1      54.141  39.418  48.239  1.00  0.00     0.255 C 
BRANCH   5   6
ATOM      6  C   ARG     1      55.542  40.052  48.425  1.00  0.00     0.259 C 
ATOM      7  N   ARG     2      55.660  41.389  48.494  1.00  0.00    -0.338 N 
ATOM      8  H   ARG     2      54.855  41.975  48.385  1.00 99.99     0.164 HD
ATOM      9  O   ARG     1      56.464  39.289  48.710  1.00  0.00    -0.271 OA
BRANCH   7  10
ATOM     10  CA  ARG     2      56.921  42.161  48.677  1.00  0.00     0.159 C 
BRANCH  10  11
ATOM     11  C   ARG     2      57.522  42.227  50.099  1.00  0.00     0.251 C 
ATOM     12  N   ARG     3      56.682  42.087  51.136  1.00  0.00    -0.338 N 
ATOM     13  H   ARG     3      55.695  42.130  50.992  1.00 99.99     0.164 HD
ATOM     14  O   ARG     2      58.748  42.247  50.228  1.00  0.00    -0.271 OA
BRANCH  12  15
ATOM     15  CA  ARG     3      57.068  42.028  52.566  1.00  0.00     0.159 C 
BRANCH  15  16
ATOM     16  C   ARG     3      58.535  42.282  52.952  1.00  0.00     0.251 C 
ATOM     17  N   ARG     4      59.370  41.240  53.023  1.00  0.00    -0.338 N 
ATOM     18  H   ARG     4      59.049  40.293  52.906  1.00 99.99     0.164 HD
ATOM     19  O   ARG     3      58.871  43.406  53.333  1.00  0.00    -0.271 OA
BRANCH  17  20
ATOM     20  CA  ARG     4      60.817  41.419  53.217  1.00  0.00     0.159 C 
BRANCH  20  21
ATOM     21  C   ARG     4      61.533  41.793  51.917  1.00  0.00     0.251 C 
ATOM     22  O   ARG     4      62.342  40.989  51.442  1.00  0.00    -0.271 OA
ATOM     23  N   ARG     5      61.546  43.098  51.610  1.00  0.00    -0.338 N 
ATOM     24  H   ARG     5      61.116  43.748  52.236  1.00 99.99     0.164 HD
BRANCH  23  25
ATOM     25  CA  ARG     5      62.165  43.739  50.430  1.00  0.00     0.159 C 
BRANCH  25  26
ATOM     26  C   ARG     5      62.858  42.853  49.375  1.00  0.00     0.251 C 
ATOM     27  N   ARG     6      62.075  42.268  48.468  1.00  0.00    -0.338 N 
ATOM     28  H   ARG     6      61.082  42.291  48.577  1.00 99.99     0.164 HD
ATOM     29  O   ARG     5      64.060  42.580  49.479  1.00  0.00    -0.271 OA
BRANCH  27  30
ATOM     30  CA  ARG     6      62.550  41.498  47.303  1.00  0.00     0.159 C 
BRANCH  30  31
ATOM     31  CB  ARG     6      61.502  40.405  47.056  1.00  0.00     0.034 C 
BRANCH  31  32
ATOM     32  CG  ARG     6      61.322  39.482  48.267  1.00  0.00     0.027 C 
BRANCH  32  33
ATOM     33  CD  ARG     6      59.866  39.428  48.749  1.00  0.00     0.116 C 
BRANCH  33  34
ATOM     34  NE  ARG     6      59.497  38.111  49.313  1.00  0.00    -0.212 N 
ATOM     35  HE  ARG     6      58.940  37.546  48.711  1.00 99.99     0.178 HD
ATOM     36  CZ  ARG     6      59.860  37.580  50.489  1.00  0.00     0.666 C 
ATOM     37  NH2 ARG     6      59.306  36.446  50.896  1.00  0.00    -0.235 N 
ATOM     38  NH1 ARG     6      60.681  38.191  51.331  1.00  0.00    -0.235 N 
ATOM     39 1HH2 ARG     6      59.585  36.058  51.771  1.00 99.99     0.174 HD
ATOM     40 2HH2 ARG     6      58.613  35.994  50.341  1.00 99.99     0.174 HD
ATOM     41 2HH1 ARG     6      61.091  39.062  51.059  1.00 99.99     0.174 HD
ATOM     42 1HH1 ARG     6      60.949  37.758  52.186  1.00 99.99     0.174 HD
ENDBRANCH  33  34
ENDBRANCH  32  33
ENDBRANCH  31  32
ENDBRANCH  30  31
BRANCH  30  43
ATOM     43  C   ARG     6      62.759  42.396  46.051  1.00  0.00     0.251 C 
ATOM     44  N   ARG     7      62.075  42.041  44.966  1.00  0.00    -0.338 N 
ATOM     45  H   ARG     7      61.646  41.140  44.958  1.00 99.99     0.164 HD
ATOM     46  O   ARG     6      63.570  43.319  46.029  1.00  0.00    -0.271 OA
BRANCH  44  47
ATOM     47  CA  ARG     7      62.081  42.732  43.650  1.00  0.00     0.159 C 
BRANCH  47  48
ATOM     48  C   ARG     7      60.690  42.813  42.989  1.00  0.00     0.251 C 
ATOM     49  O   ARG     7      59.904  43.717  43.265  1.00  0.00    -0.271 OA
ATOM     50  N   ARG     8      60.540  41.976  41.961  1.00  0.00    -0.336 N 
ATOM     51  H   ARG     8      61.314  41.394  41.715  1.00 99.99     0.164 HD
BRANCH  50  52
ATOM     52  CA  ARG     8      59.388  41.760  41.059  1.00  0.00     0.168 C 
BRANCH  52  53
ATOM     53  C   ARG     8      59.250  40.235  40.913  1.00  0.00     0.206 C 
ATOM     54  OXT ARG     8      59.205  39.806  39.733  1.00 99.99    -0.646 OA
ATOM     55  O   ARG     8      59.330  39.531  41.945  1.00 99.99    -0.646 OA
ENDBRANCH  52  53
BRANCH  52  56
ATOM     56  CB  ARG     8      59.660  42.221  39.620  1.00  0.00     0.035 C 
BRANCH  56  57
ATOM     57  CG  ARG     8      59.842  43.708  39.325  1.00  0.00     0.027 C 
BRANCH  57  58
ATOM     58  CD  ARG     8      59.967  43.811  37.807  1.00  0.00     0.116 C 
BRANCH  58  59
ATOM     59  NE  ARG     8      58.663  44.001  37.148  1.00  0.00    -0.212 N 
ATOM     60  HE  ARG     8      57.862  43.800  37.704  1.00 99.99     0.178 HD
ATOM     61  CZ  ARG     8      58.498  44.429  35.892  1.00  0.00     0.666 C 
ATOM     62  NH2 ARG     8      57.287  44.715  35.447  1.00  0.00    -0.235 N 
ATOM     63  NH1 ARG     8      59.533  44.694  35.101  1.00  0.00    -0.235 N 
ATOM     64 2HH2 ARG     8      56.494  44.619  36.046  1.00 99.99     0.174 HD
ATOM     65 1HH2 ARG     8      57.171  45.040  34.510  1.00 99.99     0.174 HD
ATOM     66 1HH1 ARG     8      59.394  45.016  34.169  1.00 99.99     0.174 HD
ATOM     67 2HH1 ARG     8      60.456  44.563  35.462  1.00 99.99     0.174 HD
ENDBRANCH  58  59
ENDBRANCH  57  58
ENDBRANCH  56  57
ENDBRANCH  52  56
ENDBRANCH  50  52
ENDBRANCH  47  48
BRANCH  47  68
ATOM     68  CB  ARG     7      62.991  42.002  42.650  1.00  0.00     0.034 C 
BRANCH  68  69
ATOM     69  CG  ARG     7      64.463  42.413  42.682  1.00  0.00     0.027 C 
BRANCH  69  70
ATOM     70  CD  ARG     7      65.253  41.298  43.367  1.00  0.00     0.116 C 
BRANCH  70  71
ATOM     71  NE  ARG     7      65.852  41.769  44.626  1.00  0.00    -0.212 N 
ATOM     72  HE  ARG     7      66.185  42.710  44.609  1.00 99.99     0.178 HD
ATOM     73  CZ  ARG     7      66.024  41.035  45.732  1.00  0.00     0.666 C 
ATOM     74  NH2 ARG     7      66.439  41.598  46.856  1.00  0.00    -0.235 N 
ATOM     75  NH1 ARG     7      65.701  39.748  45.771  1.00  0.00    -0.235 N 
ATOM     76 2HH2 ARG     7      66.630  42.577  46.892  1.00 99.99     0.174 HD
ATOM     77 1HH2 ARG     7      66.555  41.035  47.672  1.00 99.99     0.174 HD
ATOM     78 1HH1 ARG     7      65.829  39.213  46.600  1.00 99.99     0.174 HD
ATOM     79 2HH1 ARG     7      65.330  39.326  44.943  1.00 99.99     0.174 HD
ENDBRANCH  70  71
ENDBRANCH  69  70
ENDBRANCH  68  69
ENDBRANCH  47  68
ENDBRANCH  44  47
ENDBRANCH  30  43
ENDBRANCH  27  30
ENDBRANCH  25  26
BRANCH  25  80
ATOM     80  CB  ARG     5      63.189  44.780  50.912  1.00  0.00     0.034 C 
BRANCH  80  81
ATOM     81  CG  ARG     5      63.235  46.062  50.085  1.00  0.00     0.027 C 
BRANCH  81  82
ATOM     82  CD  ARG     5      64.704  46.456  49.915  1.00  0.00     0.116 C 
BRANCH  82  83
ATOM     83  NE  ARG     5      65.189  46.160  48.557  1.00  0.00    -0.212 N 
ATOM     84  CZ  ARG     5      66.054  45.189  48.235  1.00  0.00     0.666 C 
ATOM     85  NH1 ARG     5      66.510  44.328  49.136  1.00  0.00    -0.235 N 
ATOM     86  NH2 ARG     5      66.597  45.153  47.029  1.00  0.00    -0.235 N 
ATOM     87 2HH1 ARG     5      66.173  44.394  50.077  1.00 99.99     0.174 HD
ATOM     88 1HH1 ARG     5      67.154  43.615  48.878  1.00 99.99     0.174 HD
ATOM     89 2HH2 ARG     5      66.372  45.848  46.347  1.00 99.99     0.174 HD
ATOM     90 1HH2 ARG     5      67.247  44.429  46.806  1.00 99.99     0.174 HD
ATOM     91  HE  ARG     5      64.770  46.689  47.825  1.00 99.99     0.178 HD
ENDBRANCH  82  83
ENDBRANCH  81  82
ENDBRANCH  80  81
ENDBRANCH  25  80
ENDBRANCH  23  25
ENDBRANCH  20  21
BRANCH  20  92
ATOM     92  CB  ARG     4      61.480  40.246  53.969  1.00  0.00     0.034 C 
BRANCH  92  93
ATOM     93  CG  ARG     4      62.129  40.777  55.252  1.00  0.00     0.027 C 
BRANCH  93  94
ATOM     94  CD  ARG     4      63.648  40.992  55.170  1.00  0.00     0.116 C 
BRANCH  94  95
ATOM     95  NE  ARG     4      64.206  40.641  53.854  1.00  0.00    -0.212 N 
ATOM     96  CZ  ARG     4      65.109  39.680  53.608  1.00  0.00     0.666 C 
ATOM     97  NH1 ARG     4      65.596  38.907  54.568  1.00  0.00    -0.235 N 
ATOM     98  NH2 ARG     4      65.554  39.481  52.374  1.00  0.00    -0.235 N 
ATOM     99 2HH1 ARG     4      65.285  39.054  55.510  1.00 99.99     0.174 HD
ATOM    100 1HH1 ARG     4      66.265  38.198  54.364  1.00 99.99     0.174 HD
ATOM    101 2HH2 ARG     4      65.237  40.054  51.621  1.00 99.99     0.174 HD
ATOM    102 1HH2 ARG     4      66.226  38.764  52.207  1.00 99.99     0.174 HD
ATOM    103  HE  ARG     4      63.923  41.232  53.103  1.00 99.99     0.178 HD
ENDBRANCH  94  95
ENDBRANCH  93  94
ENDBRANCH  92  93
ENDBRANCH  20  92
ENDBRANCH  17  20
ENDBRANCH  15  16
BRANCH  15 104
ATOM    104  CB  ARG     3      56.655  40.689  53.201  1.00  0.00     0.034 C 
BRANCH 104 105
ATOM    105  CG  ARG     3      55.409  40.799  54.084  1.00  0.00     0.027 C 
BRANCH 105 106
ATOM    106  CD  ARG     3      55.614  40.199  55.483  1.00  0.00     0.116 C 
BRANCH 106 107
ATOM    107  NE  ARG     3      57.002  39.761  55.728  1.00  0.00    -0.212 N 
ATOM    108  CZ  ARG     3      57.794  40.158  56.732  1.00  0.00     0.666 C 
ATOM    109  NH1 ARG     3      57.373  41.004  57.663  1.00  0.00    -0.235 N 
ATOM    110  NH2 ARG     3      59.051  39.743  56.803  1.00  0.00    -0.235 N 
ATOM    111 2HH1 ARG     3      56.443  41.367  57.598  1.00 99.99     0.174 HD
ATOM    112 1HH1 ARG     3      57.976  41.288  58.404  1.00 99.99     0.174 HD
ATOM    113 1HH2 ARG     3      59.627  40.049  57.557  1.00 99.99     0.174 HD
ATOM    114 2HH2 ARG     3      59.433  39.147  56.096  1.00 99.99     0.174 HD
ATOM    115  HE  ARG     3      57.387  39.163  55.028  1.00 99.99     0.178 HD
ENDBRANCH 106 107
ENDBRANCH 105 106
ENDBRANCH 104 105
ENDBRANCH  15 104
ENDBRANCH  12  15
ENDBRANCH  10  11
BRANCH  10 116
ATOM    116  CB  ARG     2      56.819  43.562  48.039  1.00  0.00     0.034 C 
BRANCH 116 117
ATOM    117  CG  ARG     2      58.032  43.934  47.171  1.00  0.00     0.027 C 
BRANCH 117 118
ATOM    118  CD  ARG     2      58.580  42.717  46.407  1.00  0.00     0.116 C 
BRANCH 118 119
ATOM    119  NE  ARG     2      57.706  42.338  45.284  1.00  0.00    -0.212 N 
ATOM    120  CZ  ARG     2      57.757  41.202  44.572  1.00  0.00     0.666 C 
ATOM    121  NH1 ARG     2      58.612  40.225  44.853  1.00  0.00    -0.235 N 
ATOM    122  NH2 ARG     2      57.024  41.057  43.475  1.00  0.00    -0.235 N 
ATOM    123 2HH1 ARG     2      59.224  40.324  45.637  1.00 99.99     0.174 HD
ATOM    124 1HH1 ARG     2      58.632  39.396  44.301  1.00 99.99     0.174 HD
ATOM    125 1HH2 ARG     2      57.085  40.209  42.952  1.00 99.99     0.174 HD
ATOM    126 2HH2 ARG     2      56.416  41.786  43.165  1.00 99.99     0.174 HD
ATOM    127  HE  ARG     2      56.962  42.975  45.080  1.00 99.99     0.178 HD
ENDBRANCH 118 119
ENDBRANCH 117 118
ENDBRANCH 116 117
ENDBRANCH  10 116
ENDBRANCH   7  10
ENDBRANCH   5   6
BRANCH   5 128
ATOM    128  CB  ARG     1      53.922  38.685  46.905  1.00  0.00     0.042 C 
BRANCH 128 129
ATOM    129  CG  ARG     1      54.858  39.199  45.796  1.00  0.00     0.027 C 
BRANCH 129 130
ATOM    130  CD  ARG     1      55.308  38.105  44.813  1.00  0.00     0.116 C 
BRANCH 130 131
ATOM    131  NE  ARG     1      54.177  37.486  44.100  1.00  0.00    -0.212 N 
ATOM    132  CZ  ARG     1      53.747  36.223  44.216  1.00  0.00     0.666 C 
ATOM    133  NH2 ARG     1      52.678  35.824  43.540  1.00  0.00    -0.235 N 
ATOM    134  NH1 ARG     1      54.326  35.338  45.018  1.00  0.00    -0.235 N 
ATOM    135 1HH2 ARG     1      52.358  34.885  43.635  1.00 99.99     0.174 HD
ATOM    136 2HH2 ARG     1      52.195  36.455  42.933  1.00 99.99     0.174 HD
ATOM    137 1HH1 ARG     1      53.973  34.408  45.084  1.00 99.99     0.174 HD
ATOM    138 2HH1 ARG     1      55.125  35.613  45.553  1.00 99.99     0.174 HD
ATOM    139  HE  ARG     1      53.736  38.068  43.422  1.00 99.99     0.178 HD
ENDBRANCH 130 131
ENDBRANCH 129 130
ENDBRANCH 128 129
ENDBRANCH   5 128
ENDBRANCH   1   5
TORSDOF 48
ENDMDL
MODEL 8
REMARK VINA RESULT:      -4.5      2.340      6.357
REMARK WARNING: 32 MAX_TORS EXCEEDED!!!
REMARK  48 active torsions:
REMARK  status: ('A' for Active; 'I' for Inactive)
REMARK    1  A    between atoms: N_1  and  CA_2 
REMARK    2  A    between atoms: CA_2  and  C_3 
REMARK    3  A    between atoms: CA_2  and  CB_5 
REMARK       I    between atoms: C_3  and  N_20 
REMARK    4  A    between atoms: CB_5  and  CG_6 
REMARK    5  A    between atoms: CG_6  and  CD_7 
REMARK    6  A    between atoms: CD_7  and  NE_8 
REMARK       I    between atoms: NE_8  and  CZ_9 
REMARK       I    between atoms: CZ_9  and  NH2_11 
REMARK       I    between atoms: CZ_9  and  NH1_10 
REMARK    7  A    between atoms: N_20  and  CA_21 
REMARK    8  A    between atoms: CA_21  and  C_22 
REMARK    9  A    between atoms: CA_21  and  CB_24 
REMARK       I    between atoms: C_22  and  N_37 
REMARK   10  A    between atoms: CB_24  and  CG_25 
REMARK   11  A    between atoms: CG_25  and  CD_26 
REMARK   12  A    between atoms: CD_26  and  NE_27 
REMARK       I    between atoms: NE_27  and  CZ_28 
REMARK       I    between atoms: CZ_28  and  NH1_29 
REMARK       I    between atoms: CZ_28  and  NH2_30 
REMARK   13  A    between atoms: N_37  and  CA_38 
REMARK   14  A    between atoms: CA_38  and  C_39 
REMARK   15  A    between atoms: CA_38  and  CB_41 
REMARK       I    between atoms: C_39  and  N_54 
REMARK   16  A    between atoms: CB_41  and  CG_42 
REMARK   17  A    between atoms: CG_42  and  CD_43 
REMARK   18  A    between atoms: CD_43  and  NE_44 
REMARK       I    between atoms: NE_44  and  CZ_45 
REMARK       I    between atoms: CZ_45  and  NH1_46 
REMARK       I    between atoms: CZ_45  and  NH2_47 
REMARK   19  A    between atoms: N_54  and  CA_55 
REMARK   20  A    between atoms: CA_55  and  C_56 
REMARK   21  A    between atoms: CA_55  and  CB_58 
REMARK       I    between atoms: C_56  and  N_71 
REMARK   22  A    between atoms: CB_58  and  CG_59 
REMARK   23  A    between atoms: CG_59  and  CD_60 
REMARK   24  A    between atoms: CD_60  and  NE_61 
REMARK       I    between atoms: NE_61  and  CZ_62 
REMARK       I    between atoms: CZ_62  and  NH1_63 
REMARK       I    between atoms: CZ_62  and  NH2_64 
REMARK   25  A    between atoms: N_71  and  CA_72 
REMARK   26  A    between atoms: CA_72  and  C_73 
REMARK   27  A    between atoms: CA_72  and  CB_75 
REMARK       I    between atoms: C_73  and  N_88 
REMARK   28  A    between atoms: CB_75  and  CG_76 
REMARK   29  A    between atoms: CG_76  and  CD_77 
REMARK   30  A    between atoms: CD_77  and  NE_78 
REMARK       I    between atoms: NE_78  and  CZ_79 
REMARK       I    between atoms: CZ_79  and  NH1_80 
REMARK       I    between atoms: CZ_79  and  NH2_81 
REMARK   31  A    between atoms: N_88  and  CA_89 
REMARK   32  A    between atoms: CA_89  and  CB_92 
REMARK   33  A    between atoms: CA_89  and  C_90 
REMARK       I    between atoms: C_90  and  N_105 
REMARK   34  A    between atoms: CB_92  and  CG_93 
REMARK   35  A    between atoms: CG_93  and  CD_94 
REMARK   36  A    between atoms: CD_94  and  NE_95 
REMARK       I    between atoms: NE_95  and  CZ_96 
REMARK       I    between atoms: CZ_96  and  NH2_98 
REMARK       I    between atoms: CZ_96  and  NH1_97 
REMARK   37  A    between atoms: N_105  and  CA_106 
REMARK   38  A    between atoms: CA_106  and  C_107 
REMARK   39  A    between atoms: CA_106  and  CB_109 
REMARK       I    between atoms: C_107  and  N_122 
REMARK   40  A    between atoms: CB_109  and  CG_110 
REMARK   41  A    between atoms: CG_110  and  CD_111 
REMARK   42  A    between atoms: CD_111  and  NE_112 
REMARK       I    between atoms: NE_112  and  CZ_113 
REMARK       I    between atoms: CZ_113  and  NH2_115 
REMARK       I    between atoms: CZ_113  and  NH1_114 
REMARK   43  A    between atoms: N_122  and  CA_123 
REMARK   44  A    between atoms: CA_123  and  C_124 
REMARK   45  A    between atoms: CA_123  and  CB_126 
REMARK   46  A    between atoms: CB_126  and  CG_127 
REMARK   47  A    between atoms: CG_127  and  CD_128 
REMARK   48  A    between atoms: CD_128  and  NE_129 
REMARK       I    between atoms: NE_129  and  CZ_130 
REMARK       I    between atoms: CZ_130  and  NH1_131 
ROOT
ATOM      1  N   ARG     1      65.350  36.552  46.384  1.00  0.00    -0.058 N 
ATOM      2  H1  ARG     1      64.803  36.076  45.704  1.00 99.99     0.276 HD
ATOM      3  H2  ARG     1      66.232  36.783  46.011  1.00 99.99     0.276 HD
ATOM      4  H3  ARG     1      65.546  35.928  47.135  1.00 99.99     0.276 HD
ENDROOT
BRANCH   1   5
ATOM      5  CA  ARG     1      64.606  37.760  46.860  1.00  0.00     0.255 C 
BRANCH   5   6
ATOM      6  C   ARG     1      65.582  38.922  47.176  1.00  0.00     0.259 C 
ATOM      7  N   ARG     2      66.374  38.846  48.259  1.00  0.00    -0.338 N 
ATOM      8  H   ARG     2      66.307  38.065  48.882  1.00 99.99     0.164 HD
ATOM      9  O   ARG     1      65.734  39.772  46.300  1.00  0.00    -0.271 OA
BRANCH   7  10
ATOM     10  CA  ARG     2      67.368  39.862  48.704  1.00  0.00     0.159 C 
BRANCH  10  11
ATOM     11  C   ARG     2      67.073  41.344  48.381  1.00  0.00     0.251 C 
ATOM     12  N   ARG     3      67.551  41.835  47.227  1.00  0.00    -0.338 N 
ATOM     13  H   ARG     3      68.223  41.318  46.700  1.00 99.99     0.164 HD
ATOM     14  O   ARG     2      66.292  41.968  49.102  1.00  0.00    -0.271 OA
BRANCH  12  15
ATOM     15  CA  ARG     3      67.302  43.195  46.691  1.00  0.00     0.159 C 
BRANCH  15  16
ATOM     16  C   ARG     3      65.919  43.520  46.101  1.00  0.00     0.251 C 
ATOM     17  N   ARG     4      65.341  42.627  45.291  1.00  0.00    -0.338 N 
ATOM     18  H   ARG     4      65.815  41.787  45.000  1.00 99.99     0.164 HD
ATOM     19  O   ARG     3      65.447  44.649  46.259  1.00  0.00    -0.271 OA
BRANCH  17  20
ATOM     20  CA  ARG     4      63.954  42.786  44.826  1.00  0.00     0.159 C 
BRANCH  20  21
ATOM     21  C   ARG     4      62.941  42.209  45.818  1.00  0.00     0.251 C 
ATOM     22  O   ARG     4      62.802  40.982  45.863  1.00  0.00    -0.271 OA
ATOM     23  N   ARG     5      62.005  43.061  46.262  1.00  0.00    -0.338 N 
ATOM     24  H   ARG     5      62.002  44.000  45.920  1.00 99.99     0.164 HD
BRANCH  23  25
ATOM     25  CA  ARG     5      60.908  42.776  47.210  1.00  0.00     0.159 C 
BRANCH  25  26
ATOM     26  C   ARG     5      59.449  42.965  46.745  1.00  0.00     0.251 C 
ATOM     27  N   ARG     6      58.582  42.004  47.068  1.00  0.00    -0.338 N 
ATOM     28  H   ARG     6      58.912  41.144  47.455  1.00 99.99     0.164 HD
ATOM     29  O   ARG     5      59.152  43.887  45.975  1.00  0.00    -0.271 OA
BRANCH  27  30
ATOM     30  CA  ARG     6      57.126  42.059  46.838  1.00  0.00     0.159 C 
BRANCH  30  31
ATOM     31  CB  ARG     6      56.666  40.606  46.658  1.00  0.00     0.034 C 
BRANCH  31  32
ATOM     32  CG  ARG     6      55.783  40.420  45.420  1.00  0.00     0.027 C 
BRANCH  32  33
ATOM     33  CD  ARG     6      55.571  38.940  45.071  1.00  0.00     0.116 C 
BRANCH  33  34
ATOM     34  NE  ARG     6      55.561  38.065  46.263  1.00  0.00    -0.212 N 
ATOM     35  HE  ARG     6      56.463  37.857  46.631  1.00 99.99     0.178 HD
ATOM     36  CZ  ARG     6      54.502  37.575  46.924  1.00  0.00     0.666 C 
ATOM     37  NH2 ARG     6      54.686  36.678  47.885  1.00  0.00    -0.235 N 
ATOM     38  NH1 ARG     6      53.252  37.863  46.594  1.00  0.00    -0.235 N 
ATOM     39 1HH2 ARG     6      53.892  36.322  48.372  1.00 99.99     0.174 HD
ATOM     40 2HH2 ARG     6      55.602  36.357  48.109  1.00 99.99     0.174 HD
ATOM     41 2HH1 ARG     6      53.087  38.516  45.855  1.00 99.99     0.174 HD
ATOM     42 1HH1 ARG     6      52.489  37.500  47.121  1.00 99.99     0.174 HD
ENDBRANCH  33  34
ENDBRANCH  32  33
ENDBRANCH  31  32
ENDBRANCH  30  31
BRANCH  30  43
ATOM     43  C   ARG     6      56.374  42.768  48.000  1.00  0.00     0.251 C 
ATOM     44  N   ARG     7      55.837  41.963  48.914  1.00  0.00    -0.338 N 
ATOM     45  H   ARG     7      55.774  40.990  48.701  1.00 99.99     0.164 HD
ATOM     46  O   ARG     6      56.203  43.983  48.031  1.00  0.00    -0.271 OA
BRANCH  44  47
ATOM     47  CA  ARG     7      55.085  42.377  50.126  1.00  0.00     0.159 C 
BRANCH  47  48
ATOM     48  C   ARG     7      55.973  42.998  51.223  1.00  0.00     0.251 C 
ATOM     49  O   ARG     7      55.577  43.938  51.908  1.00  0.00    -0.271 OA
ATOM     50  N   ARG     8      57.064  42.279  51.493  1.00  0.00    -0.336 N 
ATOM     51  H   ARG     8      57.204  41.432  50.983  1.00 99.99     0.164 HD
BRANCH  50  52
ATOM     52  CA  ARG     8      58.146  42.509  52.476  1.00  0.00     0.168 C 
BRANCH  52  53
ATOM     53  C   ARG     8      59.461  42.258  51.718  1.00  0.00     0.206 C 
ATOM     54  OXT ARG     8      59.392  41.437  50.770  1.00 99.99    -0.646 OA
ATOM     55  O   ARG     8      60.451  42.972  51.998  1.00 99.99    -0.646 OA
ENDBRANCH  52  53
BRANCH  52  56
ATOM     56  CB  ARG     8      58.180  41.448  53.586  1.00  0.00     0.035 C 
BRANCH  56  57
ATOM     57  CG  ARG     8      56.989  40.512  53.773  1.00  0.00     0.027 C 
BRANCH  57  58
ATOM     58  CD  ARG     8      57.498  39.122  53.401  1.00  0.00     0.116 C 
BRANCH  58  59
ATOM     59  NE  ARG     8      57.718  38.974  51.952  1.00  0.00    -0.212 N 
ATOM     60  HE  ARG     8      57.082  39.464  51.364  1.00 99.99     0.178 HD
ATOM     61  CZ  ARG     8      58.699  38.255  51.399  1.00  0.00     0.666 C 
ATOM     62  NH2 ARG     8      58.903  38.313  50.094  1.00  0.00    -0.235 N 
ATOM     63  NH1 ARG     8      59.564  37.566  52.137  1.00  0.00    -0.235 N 
ATOM     64 2HH2 ARG     8      58.332  38.896  49.520  1.00 99.99     0.174 HD
ATOM     65 1HH2 ARG     8      59.643  37.777  49.687  1.00 99.99     0.174 HD
ATOM     66 1HH1 ARG     8      60.293  37.038  51.710  1.00 99.99     0.174 HD
ATOM     67 2HH1 ARG     8      59.468  37.589  53.131  1.00 99.99     0.174 HD
ENDBRANCH  58  59
ENDBRANCH  57  58
ENDBRANCH  56  57
ENDBRANCH  52  56
ENDBRANCH  50  52
ENDBRANCH  47  48
BRANCH  47  68
ATOM     68  CB  ARG     7      54.378  41.176  50.772  1.00  0.00     0.034 C 
BRANCH  68  69
ATOM     69  CG  ARG     7      54.304  39.917  49.909  1.00  0.00     0.027 C 
BRANCH  69  70
ATOM     70  CD  ARG     7      52.959  39.239  50.171  1.00  0.00     0.116 C 
BRANCH  70  71
ATOM     71  NE  ARG     7      52.219  39.926  51.241  1.00  0.00    -0.212 N 
ATOM     72  HE  ARG     7      52.580  40.821  51.497  1.00 99.99     0.178 HD
ATOM     73  CZ  ARG     7      51.170  39.430  51.908  1.00  0.00     0.666 C 
ATOM     74  NH2 ARG     7      50.488  40.189  52.752  1.00  0.00    -0.235 N 
ATOM     75  NH1 ARG     7      50.720  38.200  51.685  1.00  0.00    -0.235 N 
ATOM     76 2HH2 ARG     7      50.748  41.141  52.901  1.00 99.99     0.174 HD
ATOM     77 1HH2 ARG     7      49.704  39.802  53.234  1.00 99.99     0.174 HD
ATOM     78 1HH1 ARG     7      49.938  37.843  52.184  1.00 99.99     0.174 HD
ATOM     79 2HH1 ARG     7      51.193  37.638  51.006  1.00 99.99     0.174 HD
ENDBRANCH  70  71
ENDBRANCH  69  70
ENDBRANCH  68  69
ENDBRANCH  47  68
ENDBRANCH  44  47
ENDBRANCH  30  43
ENDBRANCH  27  30
ENDBRANCH  25  26
BRANCH  25  80
ATOM     80  CB  ARG     5      61.110  43.631  48.472  1.00  0.00     0.034 C 
BRANCH  80  81
ATOM     81  CG  ARG     5      62.386  44.469  48.479  1.00  0.00     0.027 C 
BRANCH  81  82
ATOM     82  CD  ARG     5      62.865  44.580  49.927  1.00  0.00     0.116 C 
BRANCH  82  83
ATOM     83  NE  ARG     5      64.331  44.477  50.021  1.00  0.00    -0.212 N 
ATOM     84  CZ  ARG     5      65.207  45.340  49.488  1.00  0.00     0.666 C 
ATOM     85  NH1 ARG     5      64.814  46.446  48.869  1.00  0.00    -0.235 N 
ATOM     86  NH2 ARG     5      66.494  45.036  49.434  1.00  0.00    -0.235 N 
ATOM     87 2HH1 ARG     5      63.834  46.650  48.826  1.00 99.99     0.174 HD
ATOM     88 1HH1 ARG     5      65.479  47.074  48.478  1.00 99.99     0.174 HD
ATOM     89 2HH2 ARG     5      66.827  44.163  49.787  1.00 99.99     0.174 HD
ATOM     90 1HH2 ARG     5      67.133  45.685  49.027  1.00 99.99     0.174 HD
ATOM     91  HE  ARG     5      64.675  43.739  50.594  1.00 99.99     0.178 HD
ENDBRANCH  82  83
ENDBRANCH  81  82
ENDBRANCH  80  81
ENDBRANCH  25  80
ENDBRANCH  23  25
ENDBRANCH  20  21
BRANCH  20  92
ATOM     92  CB  ARG     4      63.739  42.306  43.376  1.00  0.00     0.034 C 
BRANCH  92  93
ATOM     93  CG  ARG     4      62.323  42.684  42.927  1.00  0.00     0.027 C 
BRANCH  93  94
ATOM     94  CD  ARG     4      61.373  41.498  42.709  1.00  0.00     0.116 C 
BRANCH  94  95
ATOM     95  NE  ARG     4      60.360  41.758  41.673  1.00  0.00    -0.212 N 
ATOM     96  CZ  ARG     4      59.132  42.258  41.874  1.00  0.00     0.666 C 
ATOM     97  NH1 ARG     4      58.698  42.599  43.079  1.00  0.00    -0.235 N 
ATOM     98  NH2 ARG     4      58.300  42.419  40.853  1.00  0.00    -0.235 N 
ATOM     99 2HH1 ARG     4      59.306  42.467  43.865  1.00 99.99     0.174 HD
ATOM    100 1HH1 ARG     4      57.782  42.970  43.207  1.00 99.99     0.174 HD
ATOM    101 2HH2 ARG     4      58.571  42.155  39.930  1.00 99.99     0.174 HD
ATOM    102 1HH2 ARG     4      57.390  42.792  41.018  1.00 99.99     0.174 HD
ATOM    103  HE  ARG     4      60.608  41.461  40.754  1.00 99.99     0.178 HD
ENDBRANCH  94  95
ENDBRANCH  93  94
ENDBRANCH  92  93
ENDBRANCH  20  92
ENDBRANCH  17  20
ENDBRANCH  15  16
BRANCH  15 104
ATOM    104  CB  ARG     3      68.352  43.579  45.634  1.00  0.00     0.034 C 
BRANCH 104 105
ATOM    105  CG  ARG     3      69.743  43.016  45.934  1.00  0.00     0.027 C 
BRANCH 105 106
ATOM    106  CD  ARG     3      70.828  43.579  45.003  1.00  0.00     0.116 C 
BRANCH 106 107
ATOM    107  NE  ARG     3      70.283  44.151  43.756  1.00  0.00    -0.212 N 
ATOM    108  CZ  ARG     3      70.620  43.800  42.508  1.00  0.00     0.666 C 
ATOM    109  NH1 ARG     3      71.499  42.836  42.265  1.00  0.00    -0.235 N 
ATOM    110  NH2 ARG     3      70.107  44.441  41.468  1.00  0.00    -0.235 N 
ATOM    111 2HH1 ARG     3      71.933  42.375  43.040  1.00 99.99     0.174 HD
ATOM    112 1HH1 ARG     3      71.736  42.588  41.331  1.00 99.99     0.174 HD
ATOM    113 1HH2 ARG     3      70.369  44.166  40.545  1.00 99.99     0.174 HD
ATOM    114 2HH2 ARG     3      69.481  45.209  41.598  1.00 99.99     0.174 HD
ATOM    115  HE  ARG     3      69.654  44.916  43.881  1.00 99.99     0.178 HD
ENDBRANCH 106 107
ENDBRANCH 105 106
ENDBRANCH 104 105
ENDBRANCH  15 104
ENDBRANCH  12  15
ENDBRANCH  10  11
BRANCH  10 116
ATOM    116  CB  ARG     2      68.800  39.466  48.289  1.00  0.00     0.034 C 
BRANCH 116 117
ATOM    117  CG  ARG     2      68.871  38.156  47.487  1.00  0.00     0.027 C 
BRANCH 117 118
ATOM    118  CD  ARG     2      69.355  38.397  46.047  1.00  0.00     0.116 C 
BRANCH 118 119
ATOM    119  NE  ARG     2      68.321  39.049  45.224  1.00  0.00    -0.212 N 
ATOM    120  CZ  ARG     2      68.521  39.865  44.179  1.00  0.00     0.666 C 
ATOM    121  NH1 ARG     2      69.735  40.145  43.717  1.00  0.00    -0.235 N 
ATOM    122  NH2 ARG     2      67.506  40.523  43.631  1.00  0.00    -0.235 N 
ATOM    123 2HH1 ARG     2      70.529  39.716  44.145  1.00 99.99     0.174 HD
ATOM    124 1HH1 ARG     2      69.851  40.762  42.944  1.00 99.99     0.174 HD
ATOM    125 1HH2 ARG     2      67.677  41.135  42.861  1.00 99.99     0.174 HD
ATOM    126 2HH2 ARG     2      66.577  40.416  43.980  1.00 99.99     0.174 HD
ATOM    127  HE  ARG     2      67.377  38.800  45.440  1.00 99.99     0.178 HD
ENDBRANCH 118 119
ENDBRANCH 117 118
ENDBRANCH 116 117
ENDBRANCH  10 116
ENDBRANCH   7  10
ENDBRANCH   5   6
BRANCH   5 128
ATOM    128  CB  ARG     1      63.621  37.404  47.985  1.00  0.00     0.042 C 
BRANCH 128 129
ATOM    129  CG  ARG     1      62.863  38.638  48.510  1.00  0.00     0.027 C 
BRANCH 129 130
ATOM    130  CD  ARG     1      62.451  38.525  49.988  1.00  0.00     0.116 C 
BRANCH 130 131
ATOM    131  NE  ARG     1      62.339  39.839  50.644  1.00  0.00    -0.212 N 
ATOM    132  CZ  ARG     1      63.326  40.537  51.223  1.00  0.00     0.666 C 
ATOM    133  NH2 ARG     1      63.077  41.736  51.733  1.00  0.00    -0.235 N 
ATOM    134  NH1 ARG     1      64.576  40.096  51.283  1.00  0.00    -0.235 N 
ATOM    135 1HH2 ARG     1      63.816  42.253  52.156  1.00 99.99     0.174 HD
ATOM    136 2HH2 ARG     1      62.155  42.121  51.700  1.00 99.99     0.174 HD
ATOM    137 1HH1 ARG     1      65.286  40.646  51.716  1.00 99.99     0.174 HD
ATOM    138 2HH1 ARG     1      64.798  39.202  50.894  1.00 99.99     0.174 HD
ATOM    139  HE  ARG     1      61.413  40.204  50.705  1.00 99.99     0.178 HD
ENDBRANCH 130 131
ENDBRANCH 129 130
ENDBRANCH 128 129
ENDBRANCH   5 128
ENDBRANCH   1   5
TORSDOF 48
ENDMDL
MODEL 9
REMARK VINA RESULT:      -4.4      2.114      5.744
REMARK WARNING: 32 MAX_TORS EXCEEDED!!!
REMARK  48 active torsions:
REMARK  status: ('A' for Active; 'I' for Inactive)
REMARK    1  A    between atoms: N_1  and  CA_2 
REMARK    2  A    between atoms: CA_2  and  C_3 
REMARK    3  A    between atoms: CA_2  and  CB_5 
REMARK       I    between atoms: C_3  and  N_20 
REMARK    4  A    between atoms: CB_5  and  CG_6 
REMARK    5  A    between atoms: CG_6  and  CD_7 
REMARK    6  A    between atoms: CD_7  and  NE_8 
REMARK       I    between atoms: NE_8  and  CZ_9 
REMARK       I    between atoms: CZ_9  and  NH2_11 
REMARK       I    between atoms: CZ_9  and  NH1_10 
REMARK    7  A    between atoms: N_20  and  CA_21 
REMARK    8  A    between atoms: CA_21  and  C_22 
REMARK    9  A    between atoms: CA_21  and  CB_24 
REMARK       I    between atoms: C_22  and  N_37 
REMARK   10  A    between atoms: CB_24  and  CG_25 
REMARK   11  A    between atoms: CG_25  and  CD_26 
REMARK   12  A    between atoms: CD_26  and  NE_27 
REMARK       I    between atoms: NE_27  and  CZ_28 
REMARK       I    between atoms: CZ_28  and  NH1_29 
REMARK       I    between atoms: CZ_28  and  NH2_30 
REMARK   13  A    between atoms: N_37  and  CA_38 
REMARK   14  A    between atoms: CA_38  and  C_39 
REMARK   15  A    between atoms: CA_38  and  CB_41 
REMARK       I    between atoms: C_39  and  N_54 
REMARK   16  A    between atoms: CB_41  and  CG_42 
REMARK   17  A    between atoms: CG_42  and  CD_43 
REMARK   18  A    between atoms: CD_43  and  NE_44 
REMARK       I    between atoms: NE_44  and  CZ_45 
REMARK       I    between atoms: CZ_45  and  NH1_46 
REMARK       I    between atoms: CZ_45  and  NH2_47 
REMARK   19  A    between atoms: N_54  and  CA_55 
REMARK   20  A    between atoms: CA_55  and  C_56 
REMARK   21  A    between atoms: CA_55  and  CB_58 
REMARK       I    between atoms: C_56  and  N_71 
REMARK   22  A    between atoms: CB_58  and  CG_59 
REMARK   23  A    between atoms: CG_59  and  CD_60 
REMARK   24  A    between atoms: CD_60  and  NE_61 
REMARK       I    between atoms: NE_61  and  CZ_62 
REMARK       I    between atoms: CZ_62  and  NH1_63 
REMARK       I    between atoms: CZ_62  and  NH2_64 
REMARK   25  A    between atoms: N_71  and  CA_72 
REMARK   26  A    between atoms: CA_72  and  C_73 
REMARK   27  A    between atoms: CA_72  and  CB_75 
REMARK       I    between atoms: C_73  and  N_88 
REMARK   28  A    between atoms: CB_75  and  CG_76 
REMARK   29  A    between atoms: CG_76  and  CD_77 
REMARK   30  A    between atoms: CD_77  and  NE_78 
REMARK       I    between atoms: NE_78  and  CZ_79 
REMARK       I    between atoms: CZ_79  and  NH1_80 
REMARK       I    between atoms: CZ_79  and  NH2_81 
REMARK   31  A    between atoms: N_88  and  CA_89 
REMARK   32  A    between atoms: CA_89  and  CB_92 
REMARK   33  A    between atoms: CA_89  and  C_90 
REMARK       I    between atoms: C_90  and  N_105 
REMARK   34  A    between atoms: CB_92  and  CG_93 
REMARK   35  A    between atoms: CG_93  and  CD_94 
REMARK   36  A    between atoms: CD_94  and  NE_95 
REMARK       I    between atoms: NE_95  and  CZ_96 
REMARK       I    between atoms: CZ_96  and  NH2_98 
REMARK       I    between atoms: CZ_96  and  NH1_97 
REMARK   37  A    between atoms: N_105  and  CA_106 
REMARK   38  A    between atoms: CA_106  and  C_107 
REMARK   39  A    between atoms: CA_106  and  CB_109 
REMARK       I    between atoms: C_107  and  N_122 
REMARK   40  A    between atoms: CB_109  and  CG_110 
REMARK   41  A    between atoms: CG_110  and  CD_111 
REMARK   42  A    between atoms: CD_111  and  NE_112 
REMARK       I    between atoms: NE_112  and  CZ_113 
REMARK       I    between atoms: CZ_113  and  NH2_115 
REMARK       I    between atoms: CZ_113  and  NH1_114 
REMARK   43  A    between atoms: N_122  and  CA_123 
REMARK   44  A    between atoms: CA_123  and  C_124 
REMARK   45  A    between atoms: CA_123  and  CB_126 
REMARK   46  A    between atoms: CB_126  and  CG_127 
REMARK   47  A    between atoms: CG_127  and  CD_128 
REMARK   48  A    between atoms: CD_128  and  NE_129 
REMARK       I    between atoms: NE_129  and  CZ_130 
REMARK       I    between atoms: CZ_130  and  NH1_131 
ROOT
ATOM      1  N   ARG     1      67.916  42.068  43.610  1.00  0.00    -0.058 N 
ATOM      2  H1  ARG     1      68.794  41.627  43.758  1.00 99.99     0.276 HD
ATOM      3  H2  ARG     1      67.391  41.568  42.944  1.00 99.99     0.276 HD
ATOM      4  H3  ARG     1      68.069  42.961  43.198  1.00 99.99     0.276 HD
ENDROOT
BRANCH   1   5
ATOM      5  CA  ARG     1      67.196  42.188  44.917  1.00  0.00     0.255 C 
BRANCH   5   6
ATOM      6  C   ARG     1      65.707  42.555  44.698  1.00  0.00     0.259 C 
ATOM      7  N   ARG     2      64.890  41.674  44.096  1.00  0.00    -0.338 N 
ATOM      8  H   ARG     2      65.246  40.804  43.753  1.00 99.99     0.164 HD
ATOM      9  O   ARG     1      65.292  43.560  45.274  1.00  0.00    -0.271 OA
BRANCH   7  10
ATOM     10  CA  ARG     2      63.439  41.861  43.813  1.00  0.00     0.159 C 
BRANCH  10  11
ATOM     11  C   ARG     2      62.460  41.790  45.007  1.00  0.00     0.251 C 
ATOM     12  N   ARG     3      61.170  42.074  44.770  1.00  0.00    -0.338 N 
ATOM     13  H   ARG     3      60.898  42.494  43.906  1.00 99.99     0.164 HD
ATOM     14  O   ARG     2      62.859  41.332  46.080  1.00  0.00    -0.271 OA
BRANCH  12  15
ATOM     15  CA  ARG     3      60.063  41.975  45.751  1.00  0.00     0.159 C 
BRANCH  15  16
ATOM     16  C   ARG     3      59.070  40.806  45.637  1.00  0.00     0.251 C 
ATOM     17  N   ARG     4      58.381  40.441  46.723  1.00  0.00    -0.338 N 
ATOM     18  H   ARG     4      58.548  40.859  47.624  1.00 99.99     0.164 HD
ATOM     19  O   ARG     3      59.044  40.138  44.601  1.00  0.00    -0.271 OA
BRANCH  17  20
ATOM     20  CA  ARG     4      57.294  39.452  46.654  1.00  0.00     0.159 C 
BRANCH  20  21
ATOM     21  C   ARG     4      55.955  40.031  47.116  1.00  0.00     0.251 C 
ATOM     22  O   ARG     4      55.784  41.252  47.028  1.00  0.00    -0.271 OA
ATOM     23  N   ARG     5      55.236  39.258  47.944  1.00  0.00    -0.338 N 
ATOM     24  H   ARG     5      55.607  38.374  48.226  1.00 99.99     0.164 HD
BRANCH  23  25
ATOM     25  CA  ARG     5      53.922  39.565  48.547  1.00  0.00     0.159 C 
BRANCH  25  26
ATOM     26  C   ARG     5      53.873  40.326  49.888  1.00  0.00     0.251 C 
ATOM     27  N   ARG     6      54.630  39.853  50.879  1.00  0.00    -0.338 N 
ATOM     28  H   ARG     6      55.077  38.964  50.785  1.00 99.99     0.164 HD
ATOM     29  O   ARG     5      53.046  41.228  50.066  1.00  0.00    -0.271 OA
BRANCH  27  30
ATOM     30  CA  ARG     6      54.828  40.509  52.186  1.00  0.00     0.159 C 
BRANCH  30  31
ATOM     31  CB  ARG     6      55.358  39.423  53.133  1.00  0.00     0.034 C 
BRANCH  31  32
ATOM     32  CG  ARG     6      54.749  39.521  54.535  1.00  0.00     0.027 C 
BRANCH  32  33
ATOM     33  CD  ARG     6      55.416  38.561  55.530  1.00  0.00     0.116 C 
BRANCH  33  34
ATOM     34  NE  ARG     6      56.474  37.735  54.908  1.00  0.00    -0.212 N 
ATOM     35  HE  ARG     6      56.199  37.276  54.068  1.00 99.99     0.178 HD
ATOM     36  CZ  ARG     6      57.745  37.578  55.304  1.00  0.00     0.666 C 
ATOM     37  NH2 ARG     6      58.511  36.673  54.708  1.00  0.00    -0.235 N 
ATOM     38  NH1 ARG     6      58.258  38.216  56.345  1.00  0.00    -0.235 N 
ATOM     39 1HH2 ARG     6      59.456  36.567  55.008  1.00 99.99     0.174 HD
ATOM     40 2HH2 ARG     6      58.145  36.101  53.979  1.00 99.99     0.174 HD
ATOM     41 2HH1 ARG     6      57.691  38.884  56.829  1.00 99.99     0.174 HD
ATOM     42 1HH1 ARG     6      59.213  38.095  56.598  1.00 99.99     0.174 HD
ENDBRANCH  33  34
ENDBRANCH  32  33
ENDBRANCH  31  32
ENDBRANCH  30  31
BRANCH  30  43
ATOM     43  C   ARG     6      55.795  41.722  52.093  1.00  0.00     0.251 C 
ATOM     44  N   ARG     7      57.081  41.423  51.929  1.00  0.00    -0.338 N 
ATOM     45  H   ARG     7      57.363  40.477  52.075  1.00 99.99     0.164 HD
ATOM     46  O   ARG     6      55.418  42.880  52.251  1.00  0.00    -0.271 OA
BRANCH  44  47
ATOM     47  CA  ARG     7      58.205  42.386  51.796  1.00  0.00     0.159 C 
BRANCH  47  48
ATOM     48  C   ARG     7      59.129  42.095  50.597  1.00  0.00     0.251 C 
ATOM     49  O   ARG     7      58.673  41.750  49.510  1.00  0.00    -0.271 OA
ATOM     50  N   ARG     8      60.392  42.477  50.795  1.00  0.00    -0.336 N 
ATOM     51  H   ARG     8      60.621  42.905  51.668  1.00 99.99     0.164 HD
BRANCH  50  52
ATOM     52  CA  ARG     8      61.569  42.399  49.902  1.00  0.00     0.168 C 
BRANCH  52  53
ATOM     53  C   ARG     8      62.073  40.949  49.997  1.00  0.00     0.206 C 
ATOM     54  OXT ARG     8      61.592  40.152  49.153  1.00 99.99    -0.646 OA
ATOM     55  O   ARG     8      63.005  40.697  50.794  1.00 99.99    -0.646 OA
ENDBRANCH  52  53
BRANCH  52  56
ATOM     56  CB  ARG     8      62.765  43.214  50.416  1.00  0.00     0.035 C 
BRANCH  56  57
ATOM     57  CG  ARG     8      62.541  44.621  50.964  1.00  0.00     0.027 C 
BRANCH  57  58
ATOM     58  CD  ARG     8      62.653  45.551  49.760  1.00  0.00     0.116 C 
BRANCH  58  59
ATOM     59  NE  ARG     8      63.728  45.149  48.836  1.00  0.00    -0.212 N 
ATOM     60  HE  ARG     8      63.578  44.299  48.340  1.00 99.99     0.178 HD
ATOM     61  CZ  ARG     8      64.849  45.843  48.622  1.00  0.00     0.666 C 
ATOM     62  NH2 ARG     8      65.677  45.476  47.659  1.00  0.00    -0.235 N 
ATOM     63  NH1 ARG     8      65.108  46.974  49.271  1.00  0.00    -0.235 N 
ATOM     64 2HH2 ARG     8      65.466  44.686  47.087  1.00 99.99     0.174 HD
ATOM     65 1HH2 ARG     8      66.511  46.003  47.499  1.00 99.99     0.174 HD
ATOM     66 1HH1 ARG     8      65.946  47.483  49.097  1.00 99.99     0.174 HD
ATOM     67 2HH1 ARG     8      64.441  47.304  49.939  1.00 99.99     0.174 HD
ENDBRANCH  58  59
ENDBRANCH  57  58
ENDBRANCH  56  57
ENDBRANCH  52  56
ENDBRANCH  50  52
ENDBRANCH  47  48
BRANCH  47  68
ATOM     68  CB  ARG     7      59.099  42.364  53.045  1.00  0.00     0.034 C 
BRANCH  68  69
ATOM     69  CG  ARG     7      58.866  41.192  53.998  1.00  0.00     0.027 C 
BRANCH  69  70
ATOM     70  CD  ARG     7      60.026  40.210  53.839  1.00  0.00     0.116 C 
BRANCH  70  71
ATOM     71  NE  ARG     7      59.783  39.279  52.725  1.00  0.00    -0.212 N 
ATOM     72  HE  ARG     7      58.837  39.235  52.411  1.00 99.99     0.178 HD
ATOM     73  CZ  ARG     7      60.697  38.478  52.164  1.00  0.00     0.666 C 
ATOM     74  NH2 ARG     7      60.407  37.787  51.072  1.00  0.00    -0.235 N 
ATOM     75  NH1 ARG     7      61.943  38.416  52.617  1.00  0.00    -0.235 N 
ATOM     76 2HH2 ARG     7      59.502  37.854  50.655  1.00 99.99     0.174 HD
ATOM     77 1HH2 ARG     7      61.104  37.201  50.664  1.00 99.99     0.174 HD
ATOM     78 1HH1 ARG     7      62.615  37.821  52.189  1.00 99.99     0.174 HD
ATOM     79 2HH1 ARG     7      62.189  38.980  53.406  1.00 99.99     0.174 HD
ENDBRANCH  70  71
ENDBRANCH  69  70
ENDBRANCH  68  69
ENDBRANCH  47  68
ENDBRANCH  44  47
ENDBRANCH  30  43
ENDBRANCH  27  30
ENDBRANCH  25  26
BRANCH  25  80
ATOM     80  CB  ARG     5      53.141  38.252  48.726  1.00  0.00     0.034 C 
BRANCH  80  81
ATOM     81  CG  ARG     5      51.642  38.427  48.952  1.00  0.00     0.027 C 
BRANCH  81  82
ATOM     82  CD  ARG     5      51.235  37.517  50.113  1.00  0.00     0.116 C 
BRANCH  82  83
ATOM     83  NE  ARG     5      52.391  36.784  50.656  1.00  0.00    -0.212 N 
ATOM     84  CZ  ARG     5      52.827  36.847  51.921  1.00  0.00     0.666 C 
ATOM     85  NH1 ARG     5      52.187  37.544  52.850  1.00  0.00    -0.235 N 
ATOM     86  NH2 ARG     5      54.001  36.330  52.247  1.00  0.00    -0.235 N 
ATOM     87 2HH1 ARG     5      51.339  38.014  52.600  1.00 99.99     0.174 HD
ATOM     88 1HH1 ARG     5      52.529  37.581  53.784  1.00 99.99     0.174 HD
ATOM     89 2HH2 ARG     5      54.575  35.891  51.557  1.00 99.99     0.174 HD
ATOM     90 1HH2 ARG     5      54.318  36.392  53.192  1.00 99.99     0.174 HD
ATOM     91  HE  ARG     5      52.822  36.139  50.032  1.00 99.99     0.178 HD
ENDBRANCH  82  83
ENDBRANCH  81  82
ENDBRANCH  80  81
ENDBRANCH  25  80
ENDBRANCH  23  25
ENDBRANCH  20  21
BRANCH  20  92
ATOM     92  CB  ARG     4      57.649  38.110  47.326  1.00  0.00     0.034 C 
BRANCH  92  93
ATOM     93  CG  ARG     4      57.875  37.050  46.242  1.00  0.00     0.027 C 
BRANCH  93  94
ATOM     94  CD  ARG     4      59.328  36.906  45.768  1.00  0.00     0.116 C 
BRANCH  94  95
ATOM     95  NE  ARG     4      60.277  36.720  46.878  1.00  0.00    -0.212 N 
ATOM     96  CZ  ARG     4      61.346  37.486  47.144  1.00  0.00     0.666 C 
ATOM     97  NH1 ARG     4      61.655  38.544  46.409  1.00  0.00    -0.235 N 
ATOM     98  NH2 ARG     4      62.141  37.193  48.164  1.00  0.00    -0.235 N 
ATOM     99 2HH1 ARG     4      61.076  38.771  45.622  1.00 99.99     0.174 HD
ATOM    100 1HH1 ARG     4      62.453  39.101  46.623  1.00 99.99     0.174 HD
ATOM    101 2HH2 ARG     4      61.965  36.391  48.733  1.00 99.99     0.174 HD
ATOM    102 1HH2 ARG     4      62.932  37.770  48.349  1.00 99.99     0.174 HD
ATOM    103  HE  ARG     4      60.130  35.900  47.427  1.00 99.99     0.178 HD
ENDBRANCH  94  95
ENDBRANCH  93  94
ENDBRANCH  92  93
ENDBRANCH  20  92
ENDBRANCH  17  20
ENDBRANCH  15  16
BRANCH  15 104
ATOM    104  CB  ARG     3      59.238  43.273  45.794  1.00  0.00     0.034 C 
BRANCH 104 105
ATOM    105  CG  ARG     3      59.298  43.980  47.151  1.00  0.00     0.027 C 
BRANCH 105 106
ATOM    106  CD  ARG     3      57.995  44.717  47.497  1.00  0.00     0.116 C 
BRANCH 106 107
ATOM    107  NE  ARG     3      56.996  43.850  48.153  1.00  0.00    -0.212 N 
ATOM    108  CZ  ARG     3      55.823  44.240  48.668  1.00  0.00     0.666 C 
ATOM    109  NH1 ARG     3      55.417  45.502  48.608  1.00  0.00    -0.235 N 
ATOM    110  NH2 ARG     3      55.042  43.372  49.295  1.00  0.00    -0.235 N 
ATOM    111 2HH1 ARG     3      56.017  46.180  48.182  1.00 99.99     0.174 HD
ATOM    112 1HH1 ARG     3      54.541  45.774  48.995  1.00 99.99     0.174 HD
ATOM    113 1HH2 ARG     3      54.172  43.680  49.673  1.00 99.99     0.174 HD
ATOM    114 2HH2 ARG     3      55.326  42.422  49.414  1.00 99.99     0.174 HD
ATOM    115  HE  ARG     3      57.274  42.899  48.270  1.00 99.99     0.178 HD
ENDBRANCH 106 107
ENDBRANCH 105 106
ENDBRANCH 104 105
ENDBRANCH  15 104
ENDBRANCH  12  15
ENDBRANCH  10  11
BRANCH  10 116
ATOM    116  CB  ARG     2      62.975  40.964  42.647  1.00  0.00     0.034 C 
BRANCH 116 117
ATOM    117  CG  ARG     2      62.220  41.725  41.545  1.00  0.00     0.027 C 
BRANCH 117 118
ATOM    118  CD  ARG     2      61.043  40.904  40.992  1.00  0.00     0.116 C 
BRANCH 118 119
ATOM    119  NE  ARG     2      59.832  41.057  41.817  1.00  0.00    -0.212 N 
ATOM    120  CZ  ARG     2      58.852  41.957  41.648  1.00  0.00     0.666 C 
ATOM    121  NH1 ARG     2      58.841  42.815  40.634  1.00  0.00    -0.235 N 
ATOM    122  NH2 ARG     2      57.901  42.101  42.564  1.00  0.00    -0.235 N 
ATOM    123 2HH1 ARG     2      59.574  42.777  39.956  1.00 99.99     0.174 HD
ATOM    124 1HH1 ARG     2      58.102  43.477  40.540  1.00 99.99     0.174 HD
ATOM    125 1HH2 ARG     2      57.186  42.784  42.426  1.00 99.99     0.174 HD
ATOM    126 2HH2 ARG     2      57.894  41.539  43.389  1.00 99.99     0.174 HD
ATOM    127  HE  ARG     2      59.712  40.375  42.539  1.00 99.99     0.178 HD
ENDBRANCH 118 119
ENDBRANCH 117 118
ENDBRANCH 116 117
ENDBRANCH  10 116
ENDBRANCH   7  10
ENDBRANCH   5   6
BRANCH   5 128
ATOM    128  CB  ARG     1      67.960  43.094  45.897  1.00  0.00     0.042 C 
BRANCH 128 129
ATOM    129  CG  ARG     1      67.815  42.628  47.358  1.00  0.00     0.027 C 
BRANCH 129 130
ATOM    130  CD  ARG     1      67.967  41.108  47.538  1.00  0.00     0.116 C 
BRANCH 130 131
ATOM    131  NE  ARG     1      66.680  40.397  47.442  1.00  0.00    -0.212 N 
ATOM    132  CZ  ARG     1      65.650  40.479  48.295  1.00  0.00     0.666 C 
ATOM    133  NH2 ARG     1      64.532  39.811  48.046  1.00  0.00    -0.235 N 
ATOM    134  NH1 ARG     1      65.676  41.240  49.382  1.00  0.00    -0.235 N 
ATOM    135 1HH2 ARG     1      63.766  39.881  48.680  1.00 99.99     0.174 HD
ATOM    136 2HH2 ARG     1      64.453  39.235  47.233  1.00 99.99     0.174 HD
ATOM    137 1HH1 ARG     1      64.888  41.281  49.989  1.00 99.99     0.174 HD
ATOM    138 2HH1 ARG     1      66.500  41.768  49.589  1.00 99.99     0.174 HD
ATOM    139  HE  ARG     1      66.611  39.748  46.690  1.00 99.99     0.178 HD
ENDBRANCH 130 131
ENDBRANCH 129 130
ENDBRANCH 128 129
ENDBRANCH   5 128
ENDBRANCH   1   5
TORSDOF 48
ENDMDL
