MODEL 1
REMARK VINA RESULT:      -5.0      0.000      0.000
REMARK WARNING: 32 MAX_TORS EXCEEDED!!!
REMARK  33 active torsions:
REMARK  status: ('A' for Active; 'I' for Inactive)
REMARK    1  A    between atoms: N_1  and  CA_2 
REMARK    2  A    between atoms: CA_2  and  C_3 
REMARK    3  A    between atoms: CA_2  and  CB_5 
REMARK       I    between atoms: C_3  and  N_16 
REMARK    4  A    between atoms: CB_5  and  CG_6 
REMARK    5  A    between atoms: CG_6  and  CD_7 
REMARK    6  A    between atoms: CD_7  and  CE_8 
REMARK    7  A    between atoms: CE_8  and  NZ_9 
REMARK    8  A    between atoms: N_16  and  CA_17 
REMARK    9  A    between atoms: CA_17  and  C_18 
REMARK   10  A    between atoms: CA_17  and  CB_20 
REMARK       I    between atoms: C_18  and  N_29 
REMARK   11  A    between atoms: CB_20  and  CG_21 
REMARK   12  A    between atoms: CG_21  and  CD_22 
REMARK   13  A    between atoms: CD_22  and  CE_23 
REMARK   14  A    between atoms: CE_23  and  NZ_24 
REMARK   15  A    between atoms: N_29  and  CA_30 
REMARK   16  A    between atoms: CA_30  and  C_31 
REMARK   17  A    between atoms: CA_30  and  CB_33 
REMARK       I    between atoms: C_31  and  N_38 
REMARK   18  A    between atoms: CB_33  and  CG_34 
REMARK   19  A    between atoms: N_38  and  CA_39 
REMARK   20  A    between atoms: CA_39  and  C_40 
REMARK   21  A    between atoms: CA_39  and  CB_42 
REMARK       I    between atoms: C_40  and  N_51 
REMARK   22  A    between atoms: CB_42  and  CG_43 
REMARK   23  A    between atoms: CG_43  and  CD_44 
REMARK   24  A    between atoms: CD_44  and  CE_45 
REMARK   25  A    between atoms: CE_45  and  NZ_46 
REMARK   26  A    between atoms: N_51  and  CA_52 
REMARK   27  A    between atoms: CA_52  and  C_53 
REMARK       I    between atoms: C_53  and  N_57 
REMARK   28  A    between atoms: N_57  and  CA_58 
REMARK   29  A    between atoms: CA_58  and  C_59 
REMARK   30  A    between atoms: CA_58  and  CB_61 
REMARK       I    between atoms: C_59  and  N_69 
REMARK   31  A    between atoms: CB_61  and  CG_62 
REMARK   32  A    between atoms: N_69  and  CA_70 
REMARK   33  A    between atoms: CA_70  and  C_71 
ROOT
ATOM      1  N   LYS     1      66.295  46.188  48.556  1.00  0.00    -0.058 N 
ATOM      2  H1  LYS     1      65.348  46.487  48.521  1.00 99.99     0.276 HD
ATOM      3  H2  LYS     1      66.719  46.511  49.375  1.00 99.99     0.276 HD
ATOM      4  H3  LYS     1      66.787  46.618  47.810  1.00 99.99     0.276 HD
ENDROOT
BRANCH   1   5
ATOM      5  CA  LYS     1      66.324  44.697  48.435  1.00  0.00     0.255 C 
BRANCH   5   6
ATOM      6  C   LYS     1      66.651  44.357  46.970  1.00  0.00     0.259 C 
ATOM      7  O   LYS     1      66.099  45.062  46.123  1.00  0.00    -0.271 OA
ATOM      8  N   LYS     2      67.132  43.134  46.679  1.00  0.00    -0.338 N 
ATOM      9  H   LYS     2      67.270  42.462  47.404  1.00 99.99     0.164 HD
BRANCH   8  10
ATOM     10  CA  LYS     2      67.557  42.653  45.334  1.00  0.00     0.159 C 
BRANCH  10  11
ATOM     11  C   LYS     2      66.498  41.927  44.482  1.00  0.00     0.251 C 
ATOM     12  N   LEU     3      65.207  42.062  44.827  1.00  0.00    -0.338 N 
ATOM     13  H   LEU     3      64.952  42.507  45.682  1.00 99.99     0.164 HD
ATOM     14  O   LYS     2      66.865  41.306  43.483  1.00  0.00    -0.271 OA
BRANCH  12  15
ATOM     15  CA  LEU     3      64.063  41.526  44.057  1.00  0.00     0.159 C 
BRANCH  15  16
ATOM     16  C   LEU     3      62.906  42.526  43.883  1.00  0.00     0.251 C 
ATOM     17  N   LYS     4      62.105  42.332  42.827  1.00  0.00    -0.338 N 
ATOM     18  H   LYS     4      62.242  41.527  42.244  1.00 99.99     0.164 HD
ATOM     19  O   LEU     3      62.577  43.209  44.855  1.00  0.00    -0.271 OA
BRANCH  17  20
ATOM     20  CA  LYS     4      60.928  43.141  42.444  1.00  0.00     0.159 C 
BRANCH  20  21
ATOM     21  C   LYS     4      59.648  42.999  43.299  1.00  0.00     0.251 C 
ATOM     22  N   ALA     5      58.965  41.860  43.170  1.00  0.00    -0.338 N 
ATOM     23  H   ALA     5      59.199  41.212  42.440  1.00 99.99     0.164 HD
ATOM     24  O   LYS     4      59.213  43.950  43.954  1.00  0.00    -0.271 OA
BRANCH  22  25
ATOM     25  CA  ALA     5      57.802  41.460  43.984  1.00  0.00     0.159 C 
ATOM     26  CB  ALA     5      57.261  40.150  43.398  1.00  0.00     0.034 C 
BRANCH  25  27
ATOM     27  C   ALA     5      58.127  41.296  45.485  1.00  0.00     0.251 C 
ATOM     28  N   PHE     6      57.893  42.370  46.242  1.00  0.00    -0.337 N 
ATOM     29  H   PHE     6      57.646  43.235  45.802  1.00 99.99     0.164 HD
ATOM     30  O   ALA     5      58.638  40.265  45.928  1.00  0.00    -0.271 OA
BRANCH  28  31
ATOM     31  CA  PHE     6      58.087  42.479  47.700  1.00  0.00     0.164 C 
BRANCH  31  32
ATOM     32  C   PHE     6      56.899  43.190  48.385  1.00  0.00     0.251 C 
ATOM     33  O   PHE     6      56.689  44.389  48.207  1.00  0.00    -0.271 OA
ATOM     34  N   ALA     7      56.106  42.405  49.122  1.00  0.00    -0.336 N 
ATOM     35  H   ALA     7      56.272  41.416  49.145  1.00 99.99     0.164 HD
BRANCH  34  36
ATOM     36  CA  ALA     7      54.919  42.817  49.904  1.00  0.00     0.168 C 
ATOM     37  CB  ALA     7      53.896  41.672  49.939  1.00  0.00     0.036 C 
BRANCH  36  38
ATOM     38  C   ALA     7      55.320  43.147  51.351  1.00  0.00     0.206 C 
ATOM     39  O   ALA     7      55.280  44.348  51.710  1.00 99.99    -0.646 OA
ATOM     40  OXT ALA     7      55.810  42.209  52.021  1.00 99.99    -0.646 OA
ENDBRANCH  36  38
ENDBRANCH  34  36
ENDBRANCH  31  32
BRANCH  31  41
ATOM     41  CB  PHE     6      59.406  43.239  47.916  1.00  0.00     0.056 C 
BRANCH  41  42
ATOM     42  CG  PHE     6      60.539  42.378  48.493  1.00  0.00    -0.044 A 
ATOM     43  CD2 PHE     6      60.645  42.240  49.872  1.00  0.00     0.008 A 
ATOM     44  CE2 PHE     6      61.664  41.454  50.416  1.00  0.00     0.001 A 
ATOM     45  CZ  PHE     6      62.570  40.812  49.565  1.00  0.00     0.000 A 
ATOM     46  CE1 PHE     6      62.459  40.976  48.190  1.00  0.00     0.001 A 
ATOM     47  CD1 PHE     6      61.449  41.756  47.660  1.00  0.00     0.008 A 
ENDBRANCH  41  42
ENDBRANCH  31  41
ENDBRANCH  28  31
ENDBRANCH  25  27
ENDBRANCH  22  25
ENDBRANCH  20  21
BRANCH  20  48
ATOM     48  CB  LYS     4      60.556  42.823  40.986  1.00  0.00     0.032 C 
BRANCH  48  49
ATOM     49  CG  LYS     4      59.898  43.970  40.219  1.00  0.00     0.004 C 
BRANCH  49  50
ATOM     50  CD  LYS     4      59.235  43.396  38.964  1.00  0.00     0.032 C 
BRANCH  50  51
ATOM     51  CE  LYS     4      58.970  41.894  39.090  1.00  0.00     0.206 C 
BRANCH  51  52
ATOM     52  NZ  LYS     4      58.714  41.295  37.771  1.00  0.00    -0.064 N 
ATOM     53  HZ1 LYS     4      58.764  42.004  37.068  1.00 99.99     0.275 HD
ATOM     54  HZ2 LYS     4      59.391  40.585  37.581  1.00 99.99     0.275 HD
ATOM     55  HZ3 LYS     4      57.799  40.890  37.764  1.00 99.99     0.275 HD
ENDBRANCH  51  52
ENDBRANCH  50  51
ENDBRANCH  49  50
ENDBRANCH  48  49
ENDBRANCH  20  48
ENDBRANCH  17  20
ENDBRANCH  15  16
BRANCH  15  56
ATOM     56  CB  LEU     3      63.593  40.217  44.721  1.00  0.00     0.032 C 
BRANCH  56  57
ATOM     57  CG  LEU     3      63.397  39.041  43.753  1.00  0.00     0.002 C 
ATOM     58  CD2 LEU     3      64.147  39.313  42.448  1.00  0.00     0.000 C 
ATOM     59  CD1 LEU     3      61.913  38.785  43.465  1.00  0.00     0.000 C 
ENDBRANCH  56  57
ENDBRANCH  15  56
ENDBRANCH  12  15
ENDBRANCH  10  11
BRANCH  10  60
ATOM     60  CB  LYS     2      68.881  41.869  45.409  1.00  0.00     0.032 C 
BRANCH  60  61
ATOM     61  CG  LYS     2      70.086  42.821  45.357  1.00  0.00     0.004 C 
BRANCH  61  62
ATOM     62  CD  LYS     2      70.220  43.584  44.035  1.00  0.00     0.032 C 
BRANCH  62  63
ATOM     63  CE  LYS     2      70.283  42.595  42.865  1.00  0.00     0.206 C 
BRANCH  63  64
ATOM     64  NZ  LYS     2      69.157  42.752  41.932  1.00  0.00    -0.064 N 
ATOM     65  HZ3 LYS     2      68.984  43.722  41.765  1.00 99.99     0.275 HD
ATOM     66  HZ1 LYS     2      69.384  42.305  41.063  1.00 99.99     0.275 HD
ATOM     67  HZ2 LYS     2      68.338  42.324  42.312  1.00 99.99     0.275 HD
ENDBRANCH  63  64
ENDBRANCH  62  63
ENDBRANCH  61  62
ENDBRANCH  60  61
ENDBRANCH  10  60
ENDBRANCH   8  10
ENDBRANCH   5   6
BRANCH   5  68
ATOM     68  CB  LYS     1      65.064  44.020  49.013  1.00  0.00     0.040 C 
BRANCH  68  69
ATOM     69  CG  LYS     1      63.770  44.588  48.395  1.00  0.00     0.004 C 
BRANCH  69  70
ATOM     70  CD  LYS     1      62.743  45.088  49.425  1.00  0.00     0.032 C 
BRANCH  70  71
ATOM     71  CE  LYS     1      63.272  46.310  50.191  1.00  0.00     0.206 C 
BRANCH  71  72
ATOM     72  NZ  LYS     1      63.377  47.528  49.363  1.00  0.00    -0.064 N 
ATOM     73  HZ1 LYS     1      64.334  47.674  49.105  1.00 99.99     0.275 HD
ATOM     74  HZ2 LYS     1      62.834  47.425  48.531  1.00 99.99     0.275 HD
ATOM     75  HZ3 LYS     1      63.057  48.323  49.876  1.00 99.99     0.275 HD
ENDBRANCH  71  72
ENDBRANCH  70  71
ENDBRANCH  69  70
ENDBRANCH  68  69
ENDBRANCH   5  68
ENDBRANCH   1   5
TORSDOF 33
ENDMDL
MODEL 2
REMARK VINA RESULT:      -5.0      3.331      8.335
REMARK WARNING: 32 MAX_TORS EXCEEDED!!!
REMARK  33 active torsions:
REMARK  status: ('A' for Active; 'I' for Inactive)
REMARK    1  A    between atoms: N_1  and  CA_2 
REMARK    2  A    between atoms: CA_2  and  C_3 
REMARK    3  A    between atoms: CA_2  and  CB_5 
REMARK       I    between atoms: C_3  and  N_16 
REMARK    4  A    between atoms: CB_5  and  CG_6 
REMARK    5  A    between atoms: CG_6  and  CD_7 
REMARK    6  A    between atoms: CD_7  and  CE_8 
REMARK    7  A    between atoms: CE_8  and  NZ_9 
REMARK    8  A    between atoms: N_16  and  CA_17 
REMARK    9  A    between atoms: CA_17  and  C_18 
REMARK   10  A    between atoms: CA_17  and  CB_20 
REMARK       I    between atoms: C_18  and  N_29 
REMARK   11  A    between atoms: CB_20  and  CG_21 
REMARK   12  A    between atoms: CG_21  and  CD_22 
REMARK   13  A    between atoms: CD_22  and  CE_23 
REMARK   14  A    between atoms: CE_23  and  NZ_24 
REMARK   15  A    between atoms: N_29  and  CA_30 
REMARK   16  A    between atoms: CA_30  and  C_31 
REMARK   17  A    between atoms: CA_30  and  CB_33 
REMARK       I    between atoms: C_31  and  N_38 
REMARK   18  A    between atoms: CB_33  and  CG_34 
REMARK   19  A    between atoms: N_38  and  CA_39 
REMARK   20  A    between atoms: CA_39  and  C_40 
REMARK   21  A    between atoms: CA_39  and  CB_42 
REMARK       I    between atoms: C_40  and  N_51 
REMARK   22  A    between atoms: CB_42  and  CG_43 
REMARK   23  A    between atoms: CG_43  and  CD_44 
REMARK   24  A    between atoms: CD_44  and  CE_45 
REMARK   25  A    between atoms: CE_45  and  NZ_46 
REMARK   26  A    between atoms: N_51  and  CA_52 
REMARK   27  A    between atoms: CA_52  and  C_53 
REMARK       I    between atoms: C_53  and  N_57 
REMARK   28  A    between atoms: N_57  and  CA_58 
REMARK   29  A    between atoms: CA_58  and  C_59 
REMARK   30  A    between atoms: CA_58  and  CB_61 
REMARK       I    between atoms: C_59  and  N_69 
REMARK   31  A    between atoms: CB_61  and  CG_62 
REMARK   32  A    between atoms: N_69  and  CA_70 
REMARK   33  A    between atoms: CA_70  and  C_71 
ROOT
ATOM      1  N   LYS     1      55.570  40.402  44.676  1.00  0.00    -0.058 N 
ATOM      2  H1  LYS     1      55.391  40.298  45.648  1.00 99.99     0.276 HD
ATOM      3  H2  LYS     1      56.205  41.130  44.528  1.00 99.99     0.276 HD
ATOM      4  H3  LYS     1      54.730  40.680  44.230  1.00 99.99     0.276 HD
ENDROOT
BRANCH   1   5
ATOM      5  CA  LYS     1      56.055  39.090  44.144  1.00  0.00     0.255 C 
BRANCH   5   6
ATOM      6  C   LYS     1      57.397  39.346  43.433  1.00  0.00     0.259 C 
ATOM      7  O   LYS     1      58.318  38.587  43.744  1.00  0.00    -0.271 OA
ATOM      8  N   LYS     2      57.620  40.553  42.883  1.00  0.00    -0.338 N 
ATOM      9  H   LYS     2      56.925  41.268  42.939  1.00 99.99     0.164 HD
BRANCH   8  10
ATOM     10  CA  LYS     2      58.828  40.958  42.110  1.00  0.00     0.159 C 
BRANCH  10  11
ATOM     11  C   LYS     2      60.193  40.805  42.810  1.00  0.00     0.251 C 
ATOM     12  N   LEU     3      60.306  41.237  44.076  1.00  0.00    -0.338 N 
ATOM     13  H   LEU     3      59.572  41.759  44.505  1.00 99.99     0.164 HD
ATOM     14  O   LYS     2      61.107  40.237  42.209  1.00  0.00    -0.271 OA
BRANCH  12  15
ATOM     15  CA  LEU     3      61.505  41.066  44.926  1.00  0.00     0.159 C 
BRANCH  15  16
ATOM     16  C   LEU     3      61.276  40.164  46.153  1.00  0.00     0.251 C 
ATOM     17  N   LYS     4      60.063  40.225  46.718  1.00  0.00    -0.338 N 
ATOM     18  H   LYS     4      59.348  40.786  46.294  1.00 99.99     0.164 HD
ATOM     19  O   LEU     3      62.054  39.226  46.337  1.00  0.00    -0.271 OA
BRANCH  17  20
ATOM     20  CA  LYS     4      59.591  39.460  47.892  1.00  0.00     0.159 C 
BRANCH  20  21
ATOM     21  C   LYS     4      58.103  39.045  47.930  1.00  0.00     0.251 C 
ATOM     22  N   ALA     5      57.446  39.273  49.069  1.00  0.00    -0.338 N 
ATOM     23  H   ALA     5      57.948  39.553  49.892  1.00 99.99     0.164 HD
ATOM     24  O   LYS     4      57.597  38.409  47.001  1.00  0.00    -0.271 OA
BRANCH  22  25
ATOM     25  CA  ALA     5      55.999  39.084  49.277  1.00  0.00     0.159 C 
ATOM     26  CB  ALA     5      55.817  38.412  50.644  1.00  0.00     0.034 C 
BRANCH  25  27
ATOM     27  C   ALA     5      55.187  40.396  49.199  1.00  0.00     0.251 C 
ATOM     28  N   PHE     6      55.863  41.505  49.501  1.00  0.00    -0.337 N 
ATOM     29  H   PHE     6      56.792  41.429  49.868  1.00 99.99     0.164 HD
ATOM     30  O   ALA     5      53.980  40.396  48.948  1.00  0.00    -0.271 OA
BRANCH  28  31
ATOM     31  CA  PHE     6      55.344  42.886  49.480  1.00  0.00     0.164 C 
BRANCH  31  32
ATOM     32  C   PHE     6      56.165  43.794  48.539  1.00  0.00     0.251 C 
ATOM     33  O   PHE     6      55.803  44.943  48.292  1.00  0.00    -0.271 OA
ATOM     34  N   ALA     7      57.300  43.264  48.072  1.00  0.00    -0.336 N 
ATOM     35  H   ALA     7      57.592  42.359  48.392  1.00 99.99     0.164 HD
BRANCH  34  36
ATOM     36  CA  ALA     7      58.263  43.892  47.140  1.00  0.00     0.168 C 
ATOM     37  CB  ALA     7      59.683  43.800  47.719  1.00  0.00     0.036 C 
BRANCH  36  38
ATOM     38  C   ALA     7      58.248  43.164  45.786  1.00  0.00     0.206 C 
ATOM     39  O   ALA     7      58.490  43.838  44.756  1.00 99.99    -0.646 OA
ATOM     40  OXT ALA     7      57.840  41.980  45.794  1.00 99.99    -0.646 OA
ENDBRANCH  36  38
ENDBRANCH  34  36
ENDBRANCH  31  32
BRANCH  31  41
ATOM     41  CB  PHE     6      55.378  43.392  50.931  1.00  0.00     0.056 C 
BRANCH  41  42
ATOM     42  CG  PHE     6      56.277  42.568  51.865  1.00  0.00    -0.044 A 
ATOM     43  CD2 PHE     6      55.691  41.648  52.725  1.00  0.00     0.008 A 
ATOM     44  CE2 PHE     6      56.493  40.882  53.575  1.00  0.00     0.001 A 
ATOM     45  CZ  PHE     6      57.881  41.049  53.551  1.00  0.00     0.000 A 
ATOM     46  CE1 PHE     6      58.448  41.987  52.697  1.00  0.00     0.001 A 
ATOM     47  CD1 PHE     6      57.648  42.741  51.860  1.00  0.00     0.008 A 
ENDBRANCH  41  42
ENDBRANCH  31  41
ENDBRANCH  28  31
ENDBRANCH  25  27
ENDBRANCH  22  25
ENDBRANCH  20  21
BRANCH  20  48
ATOM     48  CB  LYS     4      59.886  40.268  49.167  1.00  0.00     0.032 C 
BRANCH  48  49
ATOM     49  CG  LYS     4      61.257  40.017  49.793  1.00  0.00     0.004 C 
BRANCH  49  50
ATOM     50  CD  LYS     4      62.120  41.264  49.583  1.00  0.00     0.032 C 
BRANCH  50  51
ATOM     51  CE  LYS     4      62.031  42.230  50.767  1.00  0.00     0.206 C 
BRANCH  51  52
ATOM     52  NZ  LYS     4      63.250  43.047  50.868  1.00  0.00    -0.064 N 
ATOM     53  HZ1 LYS     4      63.491  43.168  51.831  1.00 99.99     0.275 HD
ATOM     54  HZ2 LYS     4      64.003  42.599  50.387  1.00 99.99     0.275 HD
ATOM     55  HZ3 LYS     4      63.082  43.944  50.457  1.00 99.99     0.275 HD
ENDBRANCH  51  52
ENDBRANCH  50  51
ENDBRANCH  49  50
ENDBRANCH  48  49
ENDBRANCH  20  48
ENDBRANCH  17  20
ENDBRANCH  15  16
BRANCH  15  56
ATOM     56  CB  LEU     3      62.024  42.460  45.329  1.00  0.00     0.032 C 
BRANCH  56  57
ATOM     57  CG  LEU     3      63.415  42.463  45.979  1.00  0.00     0.002 C 
ATOM     58  CD2 LEU     3      63.458  43.494  47.109  1.00  0.00     0.000 C 
ATOM     59  CD1 LEU     3      64.519  42.757  44.957  1.00  0.00     0.000 C 
ENDBRANCH  56  57
ENDBRANCH  15  56
ENDBRANCH  12  15
ENDBRANCH  10  11
BRANCH  10  60
ATOM     60  CB  LYS     2      58.651  42.352  41.478  1.00  0.00     0.032 C 
BRANCH  60  61
ATOM     61  CG  LYS     2      59.399  42.447  40.139  1.00  0.00     0.004 C 
BRANCH  61  62
ATOM     62  CD  LYS     2      59.471  43.866  39.566  1.00  0.00     0.032 C 
BRANCH  62  63
ATOM     63  CE  LYS     2      59.747  43.809  38.060  1.00  0.00     0.206 C 
BRANCH  63  64
ATOM     64  NZ  LYS     2      58.524  43.609  37.268  1.00  0.00    -0.064 N 
ATOM     65  HZ3 LYS     2      58.682  43.883  36.320  1.00 99.99     0.275 HD
ATOM     66  HZ1 LYS     2      58.272  42.639  37.291  1.00 99.99     0.275 HD
ATOM     67  HZ2 LYS     2      57.776  44.147  37.655  1.00 99.99     0.275 HD
ENDBRANCH  63  64
ENDBRANCH  62  63
ENDBRANCH  61  62
ENDBRANCH  60  61
ENDBRANCH  10  60
ENDBRANCH   8  10
ENDBRANCH   5   6
BRANCH   5  68
ATOM     68  CB  LYS     1      54.992  38.343  43.314  1.00  0.00     0.040 C 
BRANCH  68  69
ATOM     69  CG  LYS     1      54.928  36.844  43.672  1.00  0.00     0.004 C 
BRANCH  69  70
ATOM     70  CD  LYS     1      55.261  36.529  45.140  1.00  0.00     0.032 C 
BRANCH  70  71
ATOM     71  CE  LYS     1      56.371  35.473  45.246  1.00  0.00     0.206 C 
BRANCH  71  72
ATOM     72  NZ  LYS     1      57.734  36.044  45.229  1.00  0.00    -0.064 N 
ATOM     73  HZ1 LYS     1      57.753  36.872  45.794  1.00 99.99     0.275 HD
ATOM     74  HZ2 LYS     1      58.386  35.386  45.602  1.00 99.99     0.275 HD
ATOM     75  HZ3 LYS     1      57.996  36.285  44.296  1.00 99.99     0.275 HD
ENDBRANCH  71  72
ENDBRANCH  70  71
ENDBRANCH  69  70
ENDBRANCH  68  69
ENDBRANCH   5  68
ENDBRANCH   1   5
TORSDOF 33
ENDMDL
MODEL 3
REMARK VINA RESULT:      -4.9      2.953      8.594
REMARK WARNING: 32 MAX_TORS EXCEEDED!!!
REMARK  33 active torsions:
REMARK  status: ('A' for Active; 'I' for Inactive)
REMARK    1  A    between atoms: N_1  and  CA_2 
REMARK    2  A    between atoms: CA_2  and  C_3 
REMARK    3  A    between atoms: CA_2  and  CB_5 
REMARK       I    between atoms: C_3  and  N_16 
REMARK    4  A    between atoms: CB_5  and  CG_6 
REMARK    5  A    between atoms: CG_6  and  CD_7 
REMARK    6  A    between atoms: CD_7  and  CE_8 
REMARK    7  A    between atoms: CE_8  and  NZ_9 
REMARK    8  A    between atoms: N_16  and  CA_17 
REMARK    9  A    between atoms: CA_17  and  C_18 
REMARK   10  A    between atoms: CA_17  and  CB_20 
REMARK       I    between atoms: C_18  and  N_29 
REMARK   11  A    between atoms: CB_20  and  CG_21 
REMARK   12  A    between atoms: CG_21  and  CD_22 
REMARK   13  A    between atoms: CD_22  and  CE_23 
REMARK   14  A    between atoms: CE_23  and  NZ_24 
REMARK   15  A    between atoms: N_29  and  CA_30 
REMARK   16  A    between atoms: CA_30  and  C_31 
REMARK   17  A    between atoms: CA_30  and  CB_33 
REMARK       I    between atoms: C_31  and  N_38 
REMARK   18  A    between atoms: CB_33  and  CG_34 
REMARK   19  A    between atoms: N_38  and  CA_39 
REMARK   20  A    between atoms: CA_39  and  C_40 
REMARK   21  A    between atoms: CA_39  and  CB_42 
REMARK       I    between atoms: C_40  and  N_51 
REMARK   22  A    between atoms: CB_42  and  CG_43 
REMARK   23  A    between atoms: CG_43  and  CD_44 
REMARK   24  A    between atoms: CD_44  and  CE_45 
REMARK   25  A    between atoms: CE_45  and  NZ_46 
REMARK   26  A    between atoms: N_51  and  CA_52 
REMARK   27  A    between atoms: CA_52  and  C_53 
REMARK       I    between atoms: C_53  and  N_57 
REMARK   28  A    between atoms: N_57  and  CA_58 
REMARK   29  A    between atoms: CA_58  and  C_59 
REMARK   30  A    between atoms: CA_58  and  CB_61 
REMARK       I    between atoms: C_59  and  N_69 
REMARK   31  A    between atoms: CB_61  and  CG_62 
REMARK   32  A    between atoms: N_69  and  CA_70 
REMARK   33  A    between atoms: CA_70  and  C_71 
ROOT
ATOM      1  N   LYS     1      57.240  38.103  48.720  1.00  0.00    -0.058 N 
ATOM      2  H1  LYS     1      57.779  38.532  49.437  1.00 99.99     0.276 HD
ATOM      3  H2  LYS     1      56.805  37.298  49.063  1.00 99.99     0.276 HD
ATOM      4  H3  LYS     1      57.854  37.795  48.006  1.00 99.99     0.276 HD
ENDROOT
BRANCH   1   5
ATOM      5  CA  LYS     1      56.265  39.112  48.197  1.00  0.00     0.255 C 
BRANCH   5   6
ATOM      6  C   LYS     1      57.057  40.130  47.358  1.00  0.00     0.259 C 
ATOM      7  O   LYS     1      56.743  40.199  46.167  1.00  0.00    -0.271 OA
ATOM      8  N   LYS     2      58.254  40.550  47.806  1.00  0.00    -0.338 N 
ATOM      9  H   LYS     2      58.619  40.203  48.668  1.00 99.99     0.164 HD
BRANCH   8  10
ATOM     10  CA  LYS     2      59.128  41.569  47.159  1.00  0.00     0.159 C 
BRANCH  10  11
ATOM     11  C   LYS     2      60.470  41.079  46.582  1.00  0.00     0.251 C 
ATOM     12  N   LEU     3      61.386  42.000  46.242  1.00  0.00    -0.338 N 
ATOM     13  H   LEU     3      61.157  42.971  46.238  1.00 99.99     0.164 HD
ATOM     14  O   LYS     2      60.678  39.866  46.514  1.00  0.00    -0.271 OA
BRANCH  12  15
ATOM     15  CA  LEU     3      62.759  41.699  45.780  1.00  0.00     0.159 C 
BRANCH  15  16
ATOM     16  C   LEU     3      63.849  42.005  46.824  1.00  0.00     0.251 C 
ATOM     17  N   LYS     4      64.667  43.029  46.547  1.00  0.00    -0.338 N 
ATOM     18  H   LYS     4      64.503  43.586  45.729  1.00 99.99     0.164 HD
ATOM     19  O   LEU     3      63.710  41.548  47.960  1.00  0.00    -0.271 OA
BRANCH  17  20
ATOM     20  CA  LYS     4      65.780  43.527  47.383  1.00  0.00     0.159 C 
BRANCH  20  21
ATOM     21  C   LYS     4      65.425  44.394  48.612  1.00  0.00     0.251 C 
ATOM     22  N   ALA     5      64.131  44.499  48.919  1.00  0.00    -0.338 N 
ATOM     23  H   ALA     5      63.434  44.155  48.283  1.00 99.99     0.164 HD
ATOM     24  O   LYS     4      66.288  45.065  49.187  1.00  0.00    -0.271 OA
BRANCH  22  25
ATOM     25  CA  ALA     5      63.584  45.156  50.120  1.00  0.00     0.159 C 
ATOM     26  CB  ALA     5      62.629  46.258  49.643  1.00  0.00     0.034 C 
BRANCH  25  27
ATOM     27  C   ALA     5      62.864  44.185  51.081  1.00  0.00     0.251 C 
ATOM     28  N   PHE     6      62.996  42.890  50.792  1.00  0.00    -0.337 N 
ATOM     29  H   PHE     6      63.435  42.622  49.932  1.00 99.99     0.164 HD
ATOM     30  O   ALA     5      62.155  44.595  52.003  1.00  0.00    -0.271 OA
BRANCH  28  31
ATOM     31  CA  PHE     6      62.441  41.755  51.553  1.00  0.00     0.164 C 
BRANCH  31  32
ATOM     32  C   PHE     6      63.492  40.648  51.783  1.00  0.00     0.251 C 
ATOM     33  O   PHE     6      63.560  40.051  52.856  1.00  0.00    -0.271 OA
ATOM     34  N   ALA     7      64.262  40.358  50.730  1.00  0.00    -0.336 N 
ATOM     35  H   ALA     7      64.089  40.808  49.850  1.00 99.99     0.164 HD
BRANCH  34  36
ATOM     36  CA  ALA     7      65.359  39.365  50.671  1.00  0.00     0.168 C 
ATOM     37  CB  ALA     7      64.776  37.955  50.496  1.00  0.00     0.036 C 
BRANCH  36  38
ATOM     38  C   ALA     7      66.279  39.656  49.474  1.00  0.00     0.206 C 
ATOM     39  O   ALA     7      66.551  38.707  48.701  1.00 99.99    -0.646 OA
ATOM     40  OXT ALA     7      66.817  40.787  49.445  1.00 99.99    -0.646 OA
ENDBRANCH  36  38
ENDBRANCH  34  36
ENDBRANCH  31  32
BRANCH  31  41
ATOM     41  CB  PHE     6      61.233  41.237  50.755  1.00  0.00     0.056 C 
BRANCH  41  42
ATOM     42  CG  PHE     6      59.885  41.410  51.472  1.00  0.00    -0.044 A 
ATOM     43  CD2 PHE     6      59.746  42.426  52.409  1.00  0.00     0.008 A 
ATOM     44  CE2 PHE     6      58.525  42.605  53.065  1.00  0.00     0.001 A 
ATOM     45  CZ  PHE     6      57.453  41.757  52.771  1.00  0.00     0.000 A 
ATOM     46  CE1 PHE     6      57.616  40.734  51.844  1.00  0.00     0.001 A 
ATOM     47  CD1 PHE     6      58.827  40.564  51.200  1.00  0.00     0.008 A 
ENDBRANCH  41  42
ENDBRANCH  31  41
ENDBRANCH  28  31
ENDBRANCH  25  27
ENDBRANCH  22  25
ENDBRANCH  20  21
BRANCH  20  48
ATOM     48  CB  LYS     4      66.744  44.338  46.500  1.00  0.00     0.032 C 
BRANCH  48  49
ATOM     49  CG  LYS     4      68.152  43.758  46.374  1.00  0.00     0.004 C 
BRANCH  49  50
ATOM     50  CD  LYS     4      68.038  42.239  46.219  1.00  0.00     0.032 C 
BRANCH  50  51
ATOM     51  CE  LYS     4      68.891  41.713  45.063  1.00  0.00     0.206 C 
BRANCH  51  52
ATOM     52  NZ  LYS     4      68.585  42.432  43.817  1.00  0.00    -0.064 N 
ATOM     53  HZ1 LYS     4      69.324  43.075  43.613  1.00 99.99     0.275 HD
ATOM     54  HZ2 LYS     4      68.487  41.784  43.063  1.00 99.99     0.275 HD
ATOM     55  HZ3 LYS     4      67.730  42.940  43.930  1.00 99.99     0.275 HD
ENDBRANCH  51  52
ENDBRANCH  50  51
ENDBRANCH  49  50
ENDBRANCH  48  49
ENDBRANCH  20  48
ENDBRANCH  17  20
ENDBRANCH  15  16
BRANCH  15  56
ATOM     56  CB  LEU     3      63.008  42.449  44.457  1.00  0.00     0.032 C 
BRANCH  56  57
ATOM     57  CG  LEU     3      63.639  41.597  43.345  1.00  0.00     0.002 C 
ATOM     58  CD2 LEU     3      65.019  42.150  42.988  1.00  0.00     0.000 C 
ATOM     59  CD1 LEU     3      62.752  41.545  42.096  1.00  0.00     0.000 C 
ENDBRANCH  56  57
ENDBRANCH  15  56
ENDBRANCH  12  15
ENDBRANCH  10  11
BRANCH  10  60
ATOM     60  CB  LYS     2      59.299  42.813  48.052  1.00  0.00     0.032 C 
BRANCH  60  61
ATOM     61  CG  LYS     2      58.768  44.072  47.349  1.00  0.00     0.004 C 
BRANCH  61  62
ATOM     62  CD  LYS     2      57.931  43.779  46.099  1.00  0.00     0.032 C 
BRANCH  62  63
ATOM     63  CE  LYS     2      58.709  44.185  44.842  1.00  0.00     0.206 C 
BRANCH  63  64
ATOM     64  NZ  LYS     2      58.486  43.263  43.718  1.00  0.00    -0.064 N 
ATOM     65  HZ3 LYS     2      59.099  42.477  43.794  1.00 99.99     0.275 HD
ATOM     66  HZ1 LYS     2      57.537  42.941  43.739  1.00 99.99     0.275 HD
ATOM     67  HZ2 LYS     2      58.650  43.736  42.853  1.00 99.99     0.275 HD
ENDBRANCH  63  64
ENDBRANCH  62  63
ENDBRANCH  61  62
ENDBRANCH  60  61
ENDBRANCH  10  60
ENDBRANCH   8  10
ENDBRANCH   5   6
BRANCH   5  68
ATOM     68  CB  LYS     1      55.366  39.709  49.298  1.00  0.00     0.040 C 
BRANCH  68  69
ATOM     69  CG  LYS     1      54.667  41.003  48.833  1.00  0.00     0.004 C 
BRANCH  69  70
ATOM     70  CD  LYS     1      54.721  42.153  49.854  1.00  0.00     0.032 C 
BRANCH  70  71
ATOM     71  CE  LYS     1      55.899  43.097  49.569  1.00  0.00     0.206 C 
BRANCH  71  72
ATOM     72  NZ  LYS     1      55.505  44.345  48.883  1.00  0.00    -0.064 N 
ATOM     73  HZ1 LYS     1      55.555  45.109  49.530  1.00 99.99     0.275 HD
ATOM     74  HZ2 LYS     1      56.124  44.528  48.122  1.00 99.99     0.275 HD
ATOM     75  HZ3 LYS     1      54.568  44.271  48.545  1.00 99.99     0.275 HD
ENDBRANCH  71  72
ENDBRANCH  70  71
ENDBRANCH  69  70
ENDBRANCH  68  69
ENDBRANCH   5  68
ENDBRANCH   1   5
TORSDOF 33
ENDMDL
MODEL 4
REMARK VINA RESULT:      -4.9      2.819      7.835
REMARK WARNING: 32 MAX_TORS EXCEEDED!!!
REMARK  33 active torsions:
REMARK  status: ('A' for Active; 'I' for Inactive)
REMARK    1  A    between atoms: N_1  and  CA_2 
REMARK    2  A    between atoms: CA_2  and  C_3 
REMARK    3  A    between atoms: CA_2  and  CB_5 
REMARK       I    between atoms: C_3  and  N_16 
REMARK    4  A    between atoms: CB_5  and  CG_6 
REMARK    5  A    between atoms: CG_6  and  CD_7 
REMARK    6  A    between atoms: CD_7  and  CE_8 
REMARK    7  A    between atoms: CE_8  and  NZ_9 
REMARK    8  A    between atoms: N_16  and  CA_17 
REMARK    9  A    between atoms: CA_17  and  C_18 
REMARK   10  A    between atoms: CA_17  and  CB_20 
REMARK       I    between atoms: C_18  and  N_29 
REMARK   11  A    between atoms: CB_20  and  CG_21 
REMARK   12  A    between atoms: CG_21  and  CD_22 
REMARK   13  A    between atoms: CD_22  and  CE_23 
REMARK   14  A    between atoms: CE_23  and  NZ_24 
REMARK   15  A    between atoms: N_29  and  CA_30 
REMARK   16  A    between atoms: CA_30  and  C_31 
REMARK   17  A    between atoms: CA_30  and  CB_33 
REMARK       I    between atoms: C_31  and  N_38 
REMARK   18  A    between atoms: CB_33  and  CG_34 
REMARK   19  A    between atoms: N_38  and  CA_39 
REMARK   20  A    between atoms: CA_39  and  C_40 
REMARK   21  A    between atoms: CA_39  and  CB_42 
REMARK       I    between atoms: C_40  and  N_51 
REMARK   22  A    between atoms: CB_42  and  CG_43 
REMARK   23  A    between atoms: CG_43  and  CD_44 
REMARK   24  A    between atoms: CD_44  and  CE_45 
REMARK   25  A    between atoms: CE_45  and  NZ_46 
REMARK   26  A    between atoms: N_51  and  CA_52 
REMARK   27  A    between atoms: CA_52  and  C_53 
REMARK       I    between atoms: C_53  and  N_57 
REMARK   28  A    between atoms: N_57  and  CA_58 
REMARK   29  A    between atoms: CA_58  and  C_59 
REMARK   30  A    between atoms: CA_58  and  CB_61 
REMARK       I    between atoms: C_59  and  N_69 
REMARK   31  A    between atoms: CB_61  and  CG_62 
REMARK   32  A    between atoms: N_69  and  CA_70 
REMARK   33  A    between atoms: CA_70  and  C_71 
ROOT
ATOM      1  N   LYS     1      62.440  40.479  48.440  1.00  0.00    -0.058 N 
ATOM      2  H1  LYS     1      62.391  39.646  47.898  1.00 99.99     0.276 HD
ATOM      3  H2  LYS     1      62.429  40.260  49.392  1.00 99.99     0.276 HD
ATOM      4  H3  LYS     1      61.619  41.008  48.275  1.00 99.99     0.276 HD
ENDROOT
BRANCH   1   5
ATOM      5  CA  LYS     1      63.664  41.236  48.030  1.00  0.00     0.255 C 
BRANCH   5   6
ATOM      6  C   LYS     1      63.263  42.177  46.880  1.00  0.00     0.259 C 
ATOM      7  O   LYS     1      64.116  43.002  46.544  1.00  0.00    -0.271 OA
ATOM      8  N   LYS     2      61.957  42.348  46.605  1.00  0.00    -0.338 N 
ATOM      9  H   LYS     2      61.263  41.872  47.143  1.00 99.99     0.164 HD
BRANCH   8  10
ATOM     10  CA  LYS     2      61.391  43.169  45.498  1.00  0.00     0.159 C 
BRANCH  10  11
ATOM     11  C   LYS     2      59.856  43.214  45.372  1.00  0.00     0.251 C 
ATOM     12  N   LEU     3      59.128  42.530  46.269  1.00  0.00    -0.338 N 
ATOM     13  H   LEU     3      59.565  41.907  46.914  1.00 99.99     0.164 HD
ATOM     14  O   LYS     2      59.353  43.924  44.499  1.00  0.00    -0.271 OA
BRANCH  12  15
ATOM     15  CA  LEU     3      57.651  42.555  46.359  1.00  0.00     0.159 C 
BRANCH  15  16
ATOM     16  C   LEU     3      57.113  43.342  47.568  1.00  0.00     0.251 C 
ATOM     17  N   LYS     4      56.353  42.658  48.433  1.00  0.00    -0.338 N 
ATOM     18  H   LYS     4      56.221  41.672  48.303  1.00 99.99     0.164 HD
ATOM     19  O   LEU     3      57.659  44.409  47.857  1.00  0.00    -0.271 OA
BRANCH  17  20
ATOM     20  CA  LYS     4      55.727  43.176  49.668  1.00  0.00     0.159 C 
BRANCH  20  21
ATOM     21  C   LYS     4      56.416  42.853  51.014  1.00  0.00     0.251 C 
ATOM     22  N   ALA     5      57.172  41.754  51.052  1.00  0.00    -0.338 N 
ATOM     23  H   ALA     5      57.154  41.105  50.287  1.00 99.99     0.164 HD
ATOM     24  O   LYS     4      56.160  43.504  52.031  1.00  0.00    -0.271 OA
BRANCH  22  25
ATOM     25  CA  ALA     5      58.022  41.336  52.182  1.00  0.00     0.159 C 
ATOM     26  CB  ALA     5      58.415  39.873  51.943  1.00  0.00     0.034 C 
BRANCH  25  27
ATOM     27  C   ALA     5      59.277  42.217  52.369  1.00  0.00     0.251 C 
ATOM     28  N   PHE     6      60.368  41.801  51.726  1.00  0.00    -0.337 N 
ATOM     29  H   PHE     6      60.359  40.908  51.271  1.00 99.99     0.164 HD
ATOM     30  O   ALA     5      59.277  43.192  53.124  1.00  0.00    -0.271 OA
BRANCH  28  31
ATOM     31  CA  PHE     6      61.687  42.462  51.707  1.00  0.00     0.164 C 
BRANCH  31  32
ATOM     32  C   PHE     6      61.868  43.349  50.456  1.00  0.00     0.251 C 
ATOM     33  O   PHE     6      61.137  43.218  49.475  1.00  0.00    -0.271 OA
ATOM     34  N   ALA     7      62.819  44.284  50.546  1.00  0.00    -0.336 N 
ATOM     35  H   ALA     7      63.311  44.408  51.411  1.00 99.99     0.164 HD
BRANCH  34  36
ATOM     36  CA  ALA     7      63.223  45.250  49.500  1.00  0.00     0.168 C 
ATOM     37  CB  ALA     7      62.502  46.589  49.721  1.00  0.00     0.036 C 
BRANCH  36  38
ATOM     38  C   ALA     7      64.739  45.505  49.567  1.00  0.00     0.206 C 
ATOM     39  O   ALA     7      65.170  46.227  50.497  1.00 99.99    -0.646 OA
ATOM     40  OXT ALA     7      65.415  45.101  48.594  1.00 99.99    -0.646 OA
ENDBRANCH  36  38
ENDBRANCH  34  36
ENDBRANCH  31  32
BRANCH  31  41
ATOM     41  CB  PHE     6      62.742  41.346  51.771  1.00  0.00     0.056 C 
BRANCH  41  42
ATOM     42  CG  PHE     6      63.194  40.990  53.195  1.00  0.00    -0.044 A 
ATOM     43  CD2 PHE     6      62.697  41.724  54.264  1.00  0.00     0.008 A 
ATOM     44  CE2 PHE     6      63.089  41.408  55.567  1.00  0.00     0.001 A 
ATOM     45  CZ  PHE     6      63.981  40.354  55.784  1.00  0.00     0.000 A 
ATOM     46  CE1 PHE     6      64.483  39.642  54.701  1.00  0.00     0.001 A 
ATOM     47  CD1 PHE     6      64.091  39.961  53.415  1.00  0.00     0.008 A 
ENDBRANCH  41  42
ENDBRANCH  31  41
ENDBRANCH  28  31
ENDBRANCH  25  27
ENDBRANCH  22  25
ENDBRANCH  20  21
BRANCH  20  48
ATOM     48  CB  LYS     4      54.279  42.663  49.748  1.00  0.00     0.032 C 
BRANCH  48  49
ATOM     49  CG  LYS     4      54.064  41.242  49.231  1.00  0.00     0.004 C 
BRANCH  49  50
ATOM     50  CD  LYS     4      53.322  40.442  50.306  1.00  0.00     0.032 C 
BRANCH  50  51
ATOM     51  CE  LYS     4      54.281  39.654  51.200  1.00  0.00     0.206 C 
BRANCH  51  52
ATOM     52  NZ  LYS     4      54.312  40.217  52.559  1.00  0.00    -0.064 N 
ATOM     53  HZ1 LYS     4      53.922  39.557  53.202  1.00 99.99     0.275 HD
ATOM     54  HZ2 LYS     4      55.253  40.426  52.821  1.00 99.99     0.275 HD
ATOM     55  HZ3 LYS     4      53.768  41.057  52.581  1.00 99.99     0.275 HD
ENDBRANCH  51  52
ENDBRANCH  50  51
ENDBRANCH  49  50
ENDBRANCH  48  49
ENDBRANCH  20  48
ENDBRANCH  17  20
ENDBRANCH  15  16
BRANCH  15  56
ATOM     56  CB  LEU     3      57.133  41.104  46.344  1.00  0.00     0.032 C 
BRANCH  56  57
ATOM     57  CG  LEU     3      56.453  40.679  45.034  1.00  0.00     0.002 C 
ATOM     58  CD2 LEU     3      55.045  40.156  45.325  1.00  0.00     0.000 C 
ATOM     59  CD1 LEU     3      57.268  39.613  44.292  1.00  0.00     0.000 C 
ENDBRANCH  56  57
ENDBRANCH  15  56
ENDBRANCH  12  15
ENDBRANCH  10  11
BRANCH  10  60
ATOM     60  CB  LYS     2      62.076  42.853  44.155  1.00  0.00     0.032 C 
BRANCH  60  61
ATOM     61  CG  LYS     2      61.572  41.520  43.582  1.00  0.00     0.004 C 
BRANCH  61  62
ATOM     62  CD  LYS     2      62.645  40.429  43.508  1.00  0.00     0.032 C 
BRANCH  62  63
ATOM     63  CE  LYS     2      62.375  39.357  44.569  1.00  0.00     0.206 C 
BRANCH  63  64
ATOM     64  NZ  LYS     2      60.994  39.395  45.073  1.00  0.00    -0.064 N 
ATOM     65  HZ3 LYS     2      60.659  40.336  45.079  1.00 99.99     0.275 HD
ATOM     66  HZ1 LYS     2      60.409  38.843  44.475  1.00 99.99     0.275 HD
ATOM     67  HZ2 LYS     2      60.959  39.019  45.999  1.00 99.99     0.275 HD
ENDBRANCH  63  64
ENDBRANCH  62  63
ENDBRANCH  61  62
ENDBRANCH  60  61
ENDBRANCH  10  60
ENDBRANCH   8  10
ENDBRANCH   5   6
BRANCH   5  68
ATOM     68  CB  LYS     1      64.875  40.322  47.755  1.00  0.00     0.040 C 
BRANCH  68  69
ATOM     69  CG  LYS     1      66.207  40.996  48.145  1.00  0.00     0.004 C 
BRANCH  69  70
ATOM     70  CD  LYS     1      67.240  41.061  47.008  1.00  0.00     0.032 C 
BRANCH  70  71
ATOM     71  CE  LYS     1      68.193  42.253  47.187  1.00  0.00     0.206 C 
BRANCH  71  72
ATOM     72  NZ  LYS     1      67.575  43.406  47.873  1.00  0.00    -0.064 N 
ATOM     73  HZ1 LYS     1      66.998  43.075  48.624  1.00 99.99     0.275 HD
ATOM     74  HZ2 LYS     1      68.282  44.000  48.251  1.00 99.99     0.275 HD
ATOM     75  HZ3 LYS     1      67.007  43.923  47.235  1.00 99.99     0.275 HD
ENDBRANCH  71  72
ENDBRANCH  70  71
ENDBRANCH  69  70
ENDBRANCH  68  69
ENDBRANCH   5  68
ENDBRANCH   1   5
TORSDOF 33
ENDMDL
MODEL 5
REMARK VINA RESULT:      -4.8      3.477     10.961
REMARK WARNING: 32 MAX_TORS EXCEEDED!!!
REMARK  33 active torsions:
REMARK  status: ('A' for Active; 'I' for Inactive)
REMARK    1  A    between atoms: N_1  and  CA_2 
REMARK    2  A    between atoms: CA_2  and  C_3 
REMARK    3  A    between atoms: CA_2  and  CB_5 
REMARK       I    between atoms: C_3  and  N_16 
REMARK    4  A    between atoms: CB_5  and  CG_6 
REMARK    5  A    between atoms: CG_6  and  CD_7 
REMARK    6  A    between atoms: CD_7  and  CE_8 
REMARK    7  A    between atoms: CE_8  and  NZ_9 
REMARK    8  A    between atoms: N_16  and  CA_17 
REMARK    9  A    between atoms: CA_17  and  C_18 
REMARK   10  A    between atoms: CA_17  and  CB_20 
REMARK       I    between atoms: C_18  and  N_29 
REMARK   11  A    between atoms: CB_20  and  CG_21 
REMARK   12  A    between atoms: CG_21  and  CD_22 
REMARK   13  A    between atoms: CD_22  and  CE_23 
REMARK   14  A    between atoms: CE_23  and  NZ_24 
REMARK   15  A    between atoms: N_29  and  CA_30 
REMARK   16  A    between atoms: CA_30  and  C_31 
REMARK   17  A    between atoms: CA_30  and  CB_33 
REMARK       I    between atoms: C_31  and  N_38 
REMARK   18  A    between atoms: CB_33  and  CG_34 
REMARK   19  A    between atoms: N_38  and  CA_39 
REMARK   20  A    between atoms: CA_39  and  C_40 
REMARK   21  A    between atoms: CA_39  and  CB_42 
REMARK       I    between atoms: C_40  and  N_51 
REMARK   22  A    between atoms: CB_42  and  CG_43 
REMARK   23  A    between atoms: CG_43  and  CD_44 
REMARK   24  A    between atoms: CD_44  and  CE_45 
REMARK   25  A    between atoms: CE_45  and  NZ_46 
REMARK   26  A    between atoms: N_51  and  CA_52 
REMARK   27  A    between atoms: CA_52  and  C_53 
REMARK       I    between atoms: C_53  and  N_57 
REMARK   28  A    between atoms: N_57  and  CA_58 
REMARK   29  A    between atoms: CA_58  and  C_59 
REMARK   30  A    between atoms: CA_58  and  CB_61 
REMARK       I    between atoms: C_59  and  N_69 
REMARK   31  A    between atoms: CB_61  and  CG_62 
REMARK   32  A    between atoms: N_69  and  CA_70 
REMARK   33  A    between atoms: CA_70  and  C_71 
ROOT
ATOM      1  N   LYS     1      59.183  44.414  47.356  1.00  0.00    -0.058 N 
ATOM      2  H1  LYS     1      59.457  43.893  48.157  1.00 99.99     0.276 HD
ATOM      3  H2  LYS     1      59.924  44.467  46.720  1.00 99.99     0.276 HD
ATOM      4  H3  LYS     1      59.000  45.347  47.636  1.00 99.99     0.276 HD
ENDROOT
BRANCH   1   5
ATOM      5  CA  LYS     1      57.961  43.775  46.773  1.00  0.00     0.255 C 
BRANCH   5   6
ATOM      6  C   LYS     1      56.921  43.651  47.901  1.00  0.00     0.259 C 
ATOM      7  O   LYS     1      56.327  44.692  48.195  1.00  0.00    -0.271 OA
ATOM      8  N   LYS     2      57.004  42.612  48.751  1.00  0.00    -0.338 N 
ATOM      9  H   LYS     2      57.731  41.935  48.649  1.00 99.99     0.164 HD
BRANCH   8  10
ATOM     10  CA  LYS     2      56.055  42.302  49.857  1.00  0.00     0.159 C 
BRANCH  10  11
ATOM     11  C   LYS     2      56.534  42.591  51.293  1.00  0.00     0.251 C 
ATOM     12  N   LEU     3      57.385  41.723  51.863  1.00  0.00    -0.338 N 
ATOM     13  H   LEU     3      57.596  40.853  51.424  1.00 99.99     0.164 HD
ATOM     14  O   LYS     2      56.172  43.635  51.839  1.00  0.00    -0.271 OA
BRANCH  12  15
ATOM     15  CA  LEU     3      58.024  41.907  53.185  1.00  0.00     0.159 C 
BRANCH  15  16
ATOM     16  C   LEU     3      59.545  42.135  53.115  1.00  0.00     0.251 C 
ATOM     17  N   LYS     4      60.311  41.036  53.080  1.00  0.00    -0.338 N 
ATOM     18  H   LYS     4      59.878  40.133  53.033  1.00 99.99     0.164 HD
ATOM     19  O   LEU     3      59.951  43.244  52.762  1.00  0.00    -0.271 OA
BRANCH  17  20
ATOM     20  CA  LYS     4      61.787  40.984  53.005  1.00  0.00     0.159 C 
BRANCH  20  21
ATOM     21  C   LYS     4      62.437  41.007  51.603  1.00  0.00     0.251 C 
ATOM     22  N   ALA     5      62.603  39.828  51.000  1.00  0.00    -0.338 N 
ATOM     23  H   ALA     5      62.451  38.977  51.510  1.00 99.99     0.164 HD
ATOM     24  O   LYS     4      62.904  42.050  51.136  1.00  0.00    -0.271 OA
BRANCH  22  25
ATOM     25  CA  ALA     5      63.071  39.631  49.616  1.00  0.00     0.159 C 
ATOM     26  CB  ALA     5      62.033  40.270  48.685  1.00  0.00     0.034 C 
BRANCH  25  27
ATOM     27  C   ALA     5      64.477  40.215  49.351  1.00  0.00     0.251 C 
ATOM     28  N   PHE     6      64.505  41.322  48.609  1.00  0.00    -0.337 N 
ATOM     29  H   PHE     6      63.662  41.642  48.172  1.00 99.99     0.164 HD
ATOM     30  O   ALA     5      65.499  39.644  49.740  1.00  0.00    -0.271 OA
BRANCH  28  31
ATOM     31  CA  PHE     6      65.701  42.099  48.229  1.00  0.00     0.164 C 
BRANCH  31  32
ATOM     32  C   PHE     6      65.771  43.449  48.975  1.00  0.00     0.251 C 
ATOM     33  O   PHE     6      66.849  43.999  49.191  1.00  0.00    -0.271 OA
ATOM     34  N   ALA     7      64.592  43.985  49.307  1.00  0.00    -0.336 N 
ATOM     35  H   ALA     7      63.744  43.537  49.011  1.00 99.99     0.164 HD
BRANCH  34  36
ATOM     36  CA  ALA     7      64.359  45.248  50.042  1.00  0.00     0.168 C 
ATOM     37  CB  ALA     7      64.847  46.438  49.200  1.00  0.00     0.036 C 
BRANCH  36  38
ATOM     38  C   ALA     7      62.858  45.438  50.317  1.00  0.00     0.206 C 
ATOM     39  O   ALA     7      62.490  45.531  51.512  1.00 99.99    -0.646 OA
ATOM     40  OXT ALA     7      62.092  45.328  49.332  1.00 99.99    -0.646 OA
ENDBRANCH  36  38
ENDBRANCH  34  36
ENDBRANCH  31  32
BRANCH  31  41
ATOM     41  CB  PHE     6      65.637  42.293  46.706  1.00  0.00     0.056 C 
BRANCH  41  42
ATOM     42  CG  PHE     6      64.239  42.088  46.104  1.00  0.00    -0.044 A 
ATOM     43  CD2 PHE     6      63.930  40.868  45.516  1.00  0.00     0.008 A 
ATOM     44  CE2 PHE     6      62.661  40.659  44.971  1.00  0.00     0.001 A 
ATOM     45  CZ  PHE     6      61.710  41.684  45.023  1.00  0.00     0.000 A 
ATOM     46  CE1 PHE     6      62.042  42.904  45.599  1.00  0.00     0.001 A 
ATOM     47  CD1 PHE     6      63.301  43.103  46.135  1.00  0.00     0.008 A 
ENDBRANCH  41  42
ENDBRANCH  31  41
ENDBRANCH  28  31
ENDBRANCH  25  27
ENDBRANCH  22  25
ENDBRANCH  20  21
BRANCH  20  48
ATOM     48  CB  LYS     4      62.281  39.721  53.730  1.00  0.00     0.032 C 
BRANCH  48  49
ATOM     49  CG  LYS     4      63.060  39.976  55.020  1.00  0.00     0.004 C 
BRANCH  49  50
ATOM     50  CD  LYS     4      64.537  40.165  54.663  1.00  0.00     0.032 C 
BRANCH  50  51
ATOM     51  CE  LYS     4      65.018  39.133  53.641  1.00  0.00     0.206 C 
BRANCH  51  52
ATOM     52  NZ  LYS     4      65.926  39.750  52.662  1.00  0.00    -0.064 N 
ATOM     53  HZ1 LYS     4      66.869  39.670  52.985  1.00 99.99     0.275 HD
ATOM     54  HZ2 LYS     4      65.835  39.295  51.777  1.00 99.99     0.275 HD
ATOM     55  HZ3 LYS     4      65.695  40.719  52.561  1.00 99.99     0.275 HD
ENDBRANCH  51  52
ENDBRANCH  50  51
ENDBRANCH  49  50
ENDBRANCH  48  49
ENDBRANCH  20  48
ENDBRANCH  17  20
ENDBRANCH  15  16
BRANCH  15  56
ATOM     56  CB  LEU     3      57.667  40.701  54.075  1.00  0.00     0.032 C 
BRANCH  56  57
ATOM     57  CG  LEU     3      56.382  39.963  53.671  1.00  0.00     0.002 C 
ATOM     58  CD2 LEU     3      55.327  40.120  54.768  1.00  0.00     0.000 C 
ATOM     59  CD1 LEU     3      56.642  38.477  53.399  1.00  0.00     0.000 C 
ENDBRANCH  56  57
ENDBRANCH  15  56
ENDBRANCH  12  15
ENDBRANCH  10  11
BRANCH  10  60
ATOM     60  CB  LYS     2      55.467  40.885  49.715  1.00  0.00     0.032 C 
BRANCH  60  61
ATOM     61  CG  LYS     2      54.012  40.842  50.208  1.00  0.00     0.004 C 
BRANCH  61  62
ATOM     62  CD  LYS     2      53.729  39.720  51.212  1.00  0.00     0.032 C 
BRANCH  62  63
ATOM     63  CE  LYS     2      52.638  38.792  50.666  1.00  0.00     0.206 C 
BRANCH  63  64
ATOM     64  NZ  LYS     2      51.289  39.363  50.805  1.00  0.00    -0.064 N 
ATOM     65  HZ3 LYS     2      51.033  39.401  51.770  1.00 99.99     0.275 HD
ATOM     66  HZ1 LYS     2      51.284  40.291  50.428  1.00 99.99     0.275 HD
ATOM     67  HZ2 LYS     2      50.630  38.804  50.302  1.00 99.99     0.275 HD
ENDBRANCH  63  64
ENDBRANCH  62  63
ENDBRANCH  61  62
ENDBRANCH  60  61
ENDBRANCH  10  60
ENDBRANCH   8  10
ENDBRANCH   5   6
BRANCH   5  68
ATOM     68  CB  LYS     1      58.270  42.475  46.003  1.00  0.00     0.040 C 
BRANCH  68  69
ATOM     69  CG  LYS     1      58.246  42.690  44.476  1.00  0.00     0.004 C 
BRANCH  69  70
ATOM     70  CD  LYS     1      57.725  41.484  43.675  1.00  0.00     0.032 C 
BRANCH  70  71
ATOM     71  CE  LYS     1      57.139  40.410  44.603  1.00  0.00     0.206 C 
BRANCH  71  72
ATOM     72  NZ  LYS     1      55.668  40.298  44.523  1.00  0.00    -0.064 N 
ATOM     73  HZ1 LYS     1      55.425  39.577  43.871  1.00 99.99     0.275 HD
ATOM     74  HZ2 LYS     1      55.293  40.061  45.418  1.00 99.99     0.275 HD
ATOM     75  HZ3 LYS     1      55.273  41.161  44.211  1.00 99.99     0.275 HD
ENDBRANCH  71  72
ENDBRANCH  70  71
ENDBRANCH  69  70
ENDBRANCH  68  69
ENDBRANCH   5  68
ENDBRANCH   1   5
TORSDOF 33
ENDMDL
MODEL 6
REMARK VINA RESULT:      -4.8      2.651     10.778
REMARK WARNING: 32 MAX_TORS EXCEEDED!!!
REMARK  33 active torsions:
REMARK  status: ('A' for Active; 'I' for Inactive)
REMARK    1  A    between atoms: N_1  and  CA_2 
REMARK    2  A    between atoms: CA_2  and  C_3 
REMARK    3  A    between atoms: CA_2  and  CB_5 
REMARK       I    between atoms: C_3  and  N_16 
REMARK    4  A    between atoms: CB_5  and  CG_6 
REMARK    5  A    between atoms: CG_6  and  CD_7 
REMARK    6  A    between atoms: CD_7  and  CE_8 
REMARK    7  A    between atoms: CE_8  and  NZ_9 
REMARK    8  A    between atoms: N_16  and  CA_17 
REMARK    9  A    between atoms: CA_17  and  C_18 
REMARK   10  A    between atoms: CA_17  and  CB_20 
REMARK       I    between atoms: C_18  and  N_29 
REMARK   11  A    between atoms: CB_20  and  CG_21 
REMARK   12  A    between atoms: CG_21  and  CD_22 
REMARK   13  A    between atoms: CD_22  and  CE_23 
REMARK   14  A    between atoms: CE_23  and  NZ_24 
REMARK   15  A    between atoms: N_29  and  CA_30 
REMARK   16  A    between atoms: CA_30  and  C_31 
REMARK   17  A    between atoms: CA_30  and  CB_33 
REMARK       I    between atoms: C_31  and  N_38 
REMARK   18  A    between atoms: CB_33  and  CG_34 
REMARK   19  A    between atoms: N_38  and  CA_39 
REMARK   20  A    between atoms: CA_39  and  C_40 
REMARK   21  A    between atoms: CA_39  and  CB_42 
REMARK       I    between atoms: C_40  and  N_51 
REMARK   22  A    between atoms: CB_42  and  CG_43 
REMARK   23  A    between atoms: CG_43  and  CD_44 
REMARK   24  A    between atoms: CD_44  and  CE_45 
REMARK   25  A    between atoms: CE_45  and  NZ_46 
REMARK   26  A    between atoms: N_51  and  CA_52 
REMARK   27  A    between atoms: CA_52  and  C_53 
REMARK       I    between atoms: C_53  and  N_57 
REMARK   28  A    between atoms: N_57  and  CA_58 
REMARK   29  A    between atoms: CA_58  and  C_59 
REMARK   30  A    between atoms: CA_58  and  CB_61 
REMARK       I    between atoms: C_59  and  N_69 
REMARK   31  A    between atoms: CB_61  and  CG_62 
REMARK   32  A    between atoms: N_69  and  CA_70 
REMARK   33  A    between atoms: CA_70  and  C_71 
ROOT
ATOM      1  N   LYS     1      58.834  43.614  46.723  1.00  0.00    -0.058 N 
ATOM      2  H1  LYS     1      59.401  42.937  47.180  1.00 99.99     0.276 HD
ATOM      3  H2  LYS     1      59.235  43.866  45.869  1.00 99.99     0.276 HD
ATOM      4  H3  LYS     1      58.826  44.438  47.272  1.00 99.99     0.276 HD
ENDROOT
BRANCH   1   5
ATOM      5  CA  LYS     1      57.455  43.050  46.574  1.00  0.00     0.255 C 
BRANCH   5   6
ATOM      6  C   LYS     1      56.627  43.525  47.781  1.00  0.00     0.259 C 
ATOM      7  O   LYS     1      56.834  44.685  48.146  1.00  0.00    -0.271 OA
ATOM      8  N   LYS     2      56.083  42.605  48.598  1.00  0.00    -0.338 N 
ATOM      9  H   LYS     2      56.218  41.632  48.421  1.00 99.99     0.164 HD
BRANCH   8  10
ATOM     10  CA  LYS     2      55.208  42.879  49.773  1.00  0.00     0.159 C 
BRANCH  10  11
ATOM     11  C   LYS     2      55.859  42.797  51.167  1.00  0.00     0.251 C 
ATOM     12  N   LEU     3      56.790  41.852  51.376  1.00  0.00    -0.338 N 
ATOM     13  H   LEU     3      56.959  41.142  50.695  1.00 99.99     0.164 HD
ATOM     14  O   LYS     2      55.553  43.637  52.015  1.00  0.00    -0.271 OA
BRANCH  12  15
ATOM     15  CA  LEU     3      57.588  41.706  52.613  1.00  0.00     0.159 C 
BRANCH  15  16
ATOM     16  C   LEU     3      59.032  42.225  52.488  1.00  0.00     0.251 C 
ATOM     17  N   LYS     4      59.729  41.796  51.427  1.00  0.00    -0.338 N 
ATOM     18  H   LYS     4      59.277  41.224  50.737  1.00 99.99     0.164 HD
ATOM     19  O   LEU     3      59.349  43.225  53.136  1.00  0.00    -0.271 OA
BRANCH  17  20
ATOM     20  CA  LYS     4      61.121  42.150  51.076  1.00  0.00     0.159 C 
BRANCH  20  21
ATOM     21  C   LYS     4      61.338  43.201  49.963  1.00  0.00     0.251 C 
ATOM     22  N   ALA     5      62.235  44.158  50.209  1.00  0.00    -0.338 N 
ATOM     23  H   ALA     5      62.620  44.261  51.130  1.00 99.99     0.164 HD
ATOM     24  O   LYS     4      60.613  43.228  48.964  1.00  0.00    -0.271 OA
BRANCH  22  25
ATOM     25  CA  ALA     5      62.694  45.172  49.243  1.00  0.00     0.159 C 
ATOM     26  CB  ALA     5      63.141  46.400  50.045  1.00  0.00     0.034 C 
BRANCH  25  27
ATOM     27  C   ALA     5      63.831  44.676  48.321  1.00  0.00     0.251 C 
ATOM     28  N   PHE     6      63.493  43.710  47.466  1.00  0.00    -0.337 N 
ATOM     29  H   PHE     6      62.591  43.283  47.540  1.00 99.99     0.164 HD
ATOM     30  O   ALA     5      64.984  45.098  48.432  1.00  0.00    -0.271 OA
BRANCH  28  31
ATOM     31  CA  PHE     6      64.369  43.078  46.461  1.00  0.00     0.164 C 
BRANCH  31  32
ATOM     32  C   PHE     6      63.575  42.169  45.497  1.00  0.00     0.251 C 
ATOM     33  O   PHE     6      63.924  41.009  45.286  1.00  0.00    -0.271 OA
ATOM     34  N   ALA     7      62.473  42.713  44.971  1.00  0.00    -0.336 N 
ATOM     35  H   ALA     7      62.184  43.629  45.262  1.00 99.99     0.164 HD
BRANCH  34  36
ATOM     36  CA  ALA     7      61.541  42.087  44.006  1.00  0.00     0.168 C 
ATOM     37  CB  ALA     7      60.626  41.092  44.736  1.00  0.00     0.036 C 
BRANCH  36  38
ATOM     38  C   ALA     7      60.656  43.158  43.347  1.00  0.00     0.206 C 
ATOM     39  O   ALA     7      59.916  43.845  44.092  1.00 99.99    -0.646 OA
ATOM     40  OXT ALA     7      60.622  43.161  42.095  1.00 99.99    -0.646 OA
ENDBRANCH  36  38
ENDBRANCH  34  36
ENDBRANCH  31  32
BRANCH  31  41
ATOM     41  CB  PHE     6      65.436  42.289  47.238  1.00  0.00     0.056 C 
BRANCH  41  42
ATOM     42  CG  PHE     6      66.864  42.471  46.705  1.00  0.00    -0.044 A 
ATOM     43  CD2 PHE     6      67.877  42.809  47.594  1.00  0.00     0.008 A 
ATOM     44  CE2 PHE     6      69.185  42.970  47.129  1.00  0.00     0.001 A 
ATOM     45  CZ  PHE     6      69.463  42.790  45.770  1.00  0.00     0.000 A 
ATOM     46  CE1 PHE     6      68.434  42.471  44.893  1.00  0.00     0.001 A 
ATOM     47  CD1 PHE     6      67.142  42.314  45.360  1.00  0.00     0.008 A 
ENDBRANCH  41  42
ENDBRANCH  31  41
ENDBRANCH  28  31
ENDBRANCH  25  27
ENDBRANCH  22  25
ENDBRANCH  20  21
BRANCH  20  48
ATOM     48  CB  LYS     4      61.874  40.873  50.667  1.00  0.00     0.032 C 
BRANCH  48  49
ATOM     49  CG  LYS     4      63.039  40.487  51.578  1.00  0.00     0.004 C 
BRANCH  49  50
ATOM     50  CD  LYS     4      62.468  39.907  52.875  1.00  0.00     0.032 C 
BRANCH  50  51
ATOM     51  CE  LYS     4      62.907  40.705  54.104  1.00  0.00     0.206 C 
BRANCH  51  52
ATOM     52  NZ  LYS     4      61.762  40.980  54.985  1.00  0.00    -0.064 N 
ATOM     53  HZ1 LYS     4      62.063  40.957  55.939  1.00 99.99     0.275 HD
ATOM     54  HZ2 LYS     4      61.377  41.879  54.776  1.00 99.99     0.275 HD
ATOM     55  HZ3 LYS     4      61.061  40.280  54.845  1.00 99.99     0.275 HD
ENDBRANCH  51  52
ENDBRANCH  50  51
ENDBRANCH  49  50
ENDBRANCH  48  49
ENDBRANCH  20  48
ENDBRANCH  17  20
ENDBRANCH  15  16
BRANCH  15  56
ATOM     56  CB  LEU     3      57.547  40.230  53.054  1.00  0.00     0.032 C 
BRANCH  56  57
ATOM     57  CG  LEU     3      56.748  39.966  54.339  1.00  0.00     0.002 C 
ATOM     58  CD2 LEU     3      55.414  40.713  54.282  1.00  0.00     0.000 C 
ATOM     59  CD1 LEU     3      57.531  40.381  55.590  1.00  0.00     0.000 C 
ENDBRANCH  56  57
ENDBRANCH  15  56
ENDBRANCH  12  15
ENDBRANCH  10  11
BRANCH  10  60
ATOM     60  CB  LYS     2      53.894  42.077  49.697  1.00  0.00     0.032 C 
BRANCH  60  61
ATOM     61  CG  LYS     2      54.172  40.595  49.399  1.00  0.00     0.004 C 
BRANCH  61  62
ATOM     62  CD  LYS     2      53.019  39.877  48.691  1.00  0.00     0.032 C 
BRANCH  62  63
ATOM     63  CE  LYS     2      53.564  38.720  47.845  1.00  0.00     0.206 C 
BRANCH  63  64
ATOM     64  NZ  LYS     2      54.162  39.177  46.581  1.00  0.00    -0.064 N 
ATOM     65  HZ3 LYS     2      53.515  39.755  46.087  1.00 99.99     0.275 HD
ATOM     66  HZ1 LYS     2      54.990  39.707  46.781  1.00 99.99     0.275 HD
ATOM     67  HZ2 LYS     2      54.410  38.389  46.018  1.00 99.99     0.275 HD
ENDBRANCH  63  64
ENDBRANCH  62  63
ENDBRANCH  61  62
ENDBRANCH  60  61
ENDBRANCH  10  60
ENDBRANCH   8  10
ENDBRANCH   5   6
BRANCH   5  68
ATOM     68  CB  LYS     1      57.450  41.529  46.317  1.00  0.00     0.040 C 
BRANCH  68  69
ATOM     69  CG  LYS     1      56.655  41.162  45.047  1.00  0.00     0.004 C 
BRANCH  69  70
ATOM     70  CD  LYS     1      57.237  39.977  44.257  1.00  0.00     0.032 C 
BRANCH  70  71
ATOM     71  CE  LYS     1      57.685  40.410  42.853  1.00  0.00     0.206 C 
BRANCH  71  72
ATOM     72  NZ  LYS     1      57.663  41.873  42.650  1.00  0.00    -0.064 N 
ATOM     73  HZ1 LYS     1      58.429  42.138  42.060  1.00 99.99     0.275 HD
ATOM     74  HZ2 LYS     1      56.810  42.146  42.208  1.00 99.99     0.275 HD
ATOM     75  HZ3 LYS     1      57.753  42.344  43.526  1.00 99.99     0.275 HD
ENDBRANCH  71  72
ENDBRANCH  70  71
ENDBRANCH  69  70
ENDBRANCH  68  69
ENDBRANCH   5  68
ENDBRANCH   1   5
TORSDOF 33
ENDMDL
MODEL 7
REMARK VINA RESULT:      -4.7      3.559      8.998
REMARK WARNING: 32 MAX_TORS EXCEEDED!!!
REMARK  33 active torsions:
REMARK  status: ('A' for Active; 'I' for Inactive)
REMARK    1  A    between atoms: N_1  and  CA_2 
REMARK    2  A    between atoms: CA_2  and  C_3 
REMARK    3  A    between atoms: CA_2  and  CB_5 
REMARK       I    between atoms: C_3  and  N_16 
REMARK    4  A    between atoms: CB_5  and  CG_6 
REMARK    5  A    between atoms: CG_6  and  CD_7 
REMARK    6  A    between atoms: CD_7  and  CE_8 
REMARK    7  A    between atoms: CE_8  and  NZ_9 
REMARK    8  A    between atoms: N_16  and  CA_17 
REMARK    9  A    between atoms: CA_17  and  C_18 
REMARK   10  A    between atoms: CA_17  and  CB_20 
REMARK       I    between atoms: C_18  and  N_29 
REMARK   11  A    between atoms: CB_20  and  CG_21 
REMARK   12  A    between atoms: CG_21  and  CD_22 
REMARK   13  A    between atoms: CD_22  and  CE_23 
REMARK   14  A    between atoms: CE_23  and  NZ_24 
REMARK   15  A    between atoms: N_29  and  CA_30 
REMARK   16  A    between atoms: CA_30  and  C_31 
REMARK   17  A    between atoms: CA_30  and  CB_33 
REMARK       I    between atoms: C_31  and  N_38 
REMARK   18  A    between atoms: CB_33  and  CG_34 
REMARK   19  A    between atoms: N_38  and  CA_39 
REMARK   20  A    between atoms: CA_39  and  C_40 
REMARK   21  A    between atoms: CA_39  and  CB_42 
REMARK       I    between atoms: C_40  and  N_51 
REMARK   22  A    between atoms: CB_42  and  CG_43 
REMARK   23  A    between atoms: CG_43  and  CD_44 
REMARK   24  A    between atoms: CD_44  and  CE_45 
REMARK   25  A    between atoms: CE_45  and  NZ_46 
REMARK   26  A    between atoms: N_51  and  CA_52 
REMARK   27  A    between atoms: CA_52  and  C_53 
REMARK       I    between atoms: C_53  and  N_57 
REMARK   28  A    between atoms: N_57  and  CA_58 
REMARK   29  A    between atoms: CA_58  and  C_59 
REMARK   30  A    between atoms: CA_58  and  CB_61 
REMARK       I    between atoms: C_59  and  N_69 
REMARK   31  A    between atoms: CB_61  and  CG_62 
REMARK   32  A    between atoms: N_69  and  CA_70 
REMARK   33  A    between atoms: CA_70  and  C_71 
ROOT
ATOM      1  N   LYS     1      57.923  42.047  41.312  1.00  0.00    -0.058 N 
ATOM      2  H1  LYS     1      57.354  42.621  40.732  1.00 99.99     0.276 HD
ATOM      3  H2  LYS     1      57.924  41.129  40.976  1.00 99.99     0.276 HD
ATOM      4  H3  LYS     1      57.511  42.005  42.212  1.00 99.99     0.276 HD
ENDROOT
BRANCH   1   5
ATOM      5  CA  LYS     1      59.293  42.647  41.370  1.00  0.00     0.255 C 
BRANCH   5   6
ATOM      6  C   LYS     1      59.679  42.776  42.854  1.00  0.00     0.259 C 
ATOM      7  O   LYS     1      59.845  43.927  43.264  1.00  0.00    -0.271 OA
ATOM      8  N   LYS     2      60.209  41.711  43.482  1.00  0.00    -0.338 N 
ATOM      9  H   LYS     2      60.349  40.854  42.989  1.00 99.99     0.164 HD
BRANCH   8  10
ATOM     10  CA  LYS     2      60.586  41.636  44.922  1.00  0.00     0.159 C 
BRANCH  10  11
ATOM     11  C   LYS     2      62.090  41.621  45.254  1.00  0.00     0.251 C 
ATOM     12  N   LEU     3      62.526  42.408  46.251  1.00  0.00    -0.338 N 
ATOM     13  H   LEU     3      61.920  43.078  46.674  1.00 99.99     0.164 HD
ATOM     14  O   LYS     2      62.825  40.844  44.641  1.00  0.00    -0.271 OA
BRANCH  12  15
ATOM     15  CA  LEU     3      63.911  42.431  46.769  1.00  0.00     0.159 C 
BRANCH  15  16
ATOM     16  C   LEU     3      64.008  42.739  48.275  1.00  0.00     0.251 C 
ATOM     17  N   LYS     4      62.948  42.401  49.021  1.00  0.00    -0.338 N 
ATOM     18  H   LYS     4      62.181  41.913  48.597  1.00 99.99     0.164 HD
ATOM     19  O   LEU     3      65.125  42.947  48.755  1.00  0.00    -0.271 OA
BRANCH  17  20
ATOM     20  CA  LYS     4      62.795  42.581  50.481  1.00  0.00     0.159 C 
BRANCH  20  21
ATOM     21  C   LYS     4      62.109  41.448  51.278  1.00  0.00     0.251 C 
ATOM     22  N   ALA     5      61.633  41.767  52.483  1.00  0.00    -0.338 N 
ATOM     23  H   ALA     5      61.857  42.655  52.894  1.00 99.99     0.164 HD
ATOM     24  O   LYS     4      62.131  40.283  50.873  1.00  0.00    -0.271 OA
BRANCH  22  25
ATOM     25  CA  ALA     5      60.828  40.885  53.348  1.00  0.00     0.159 C 
ATOM     26  CB  ALA     5      61.607  40.690  54.655  1.00  0.00     0.034 C 
BRANCH  25  27
ATOM     27  C   ALA     5      59.409  41.427  53.632  1.00  0.00     0.251 C 
ATOM     28  N   PHE     6      58.498  40.506  53.948  1.00  0.00    -0.337 N 
ATOM     29  H   PHE     6      58.734  39.536  53.870  1.00 99.99     0.164 HD
ATOM     30  O   ALA     5      59.134  42.622  53.498  1.00  0.00    -0.271 OA
BRANCH  28  31
ATOM     31  CA  PHE     6      57.084  40.747  54.292  1.00  0.00     0.164 C 
BRANCH  31  32
ATOM     32  C   PHE     6      56.711  40.128  55.656  1.00  0.00     0.251 C 
ATOM     33  O   PHE     6      56.236  38.995  55.730  1.00  0.00    -0.271 OA
ATOM     34  N   ALA     7      56.991  40.879  56.726  1.00  0.00    -0.336 N 
ATOM     35  H   ALA     7      57.473  41.751  56.606  1.00 99.99     0.164 HD
BRANCH  34  36
ATOM     36  CA  ALA     7      56.723  40.551  58.144  1.00  0.00     0.168 C 
ATOM     37  CB  ALA     7      57.784  41.207  59.040  1.00  0.00     0.036 C 
BRANCH  36  38
ATOM     38  C   ALA     7      55.343  41.085  58.564  1.00  0.00     0.206 C 
ATOM     39  O   ALA     7      54.627  40.351  59.286  1.00 99.99    -0.646 OA
ATOM     40  OXT ALA     7      54.970  42.151  58.023  1.00 99.99    -0.646 OA
ENDBRANCH  36  38
ENDBRANCH  34  36
ENDBRANCH  31  32
BRANCH  31  41
ATOM     41  CB  PHE     6      56.244  40.155  53.149  1.00  0.00     0.056 C 
BRANCH  41  42
ATOM     42  CG  PHE     6      55.777  41.188  52.112  1.00  0.00    -0.044 A 
ATOM     43  CD2 PHE     6      55.241  40.741  50.911  1.00  0.00     0.008 A 
ATOM     44  CE2 PHE     6      54.802  41.665  49.959  1.00  0.00     0.001 A 
ATOM     45  CZ  PHE     6      54.908  43.034  50.225  1.00  0.00     0.000 A 
ATOM     46  CE1 PHE     6      55.464  43.463  51.424  1.00  0.00     0.001 A 
ATOM     47  CD1 PHE     6      55.896  42.542  52.360  1.00  0.00     0.008 A 
ENDBRANCH  41  42
ENDBRANCH  31  41
ENDBRANCH  28  31
ENDBRANCH  25  27
ENDBRANCH  22  25
ENDBRANCH  20  21
BRANCH  20  48
ATOM     48  CB  LYS     4      62.015  43.880  50.745  1.00  0.00     0.032 C 
BRANCH  48  49
ATOM     49  CG  LYS     4      62.864  45.063  51.211  1.00  0.00     0.004 C 
BRANCH  49  50
ATOM     50  CD  LYS     4      63.236  45.903  49.987  1.00  0.00     0.032 C 
BRANCH  50  51
ATOM     51  CE  LYS     4      64.739  46.176  49.912  1.00  0.00     0.206 C 
BRANCH  51  52
ATOM     52  NZ  LYS     4      65.217  46.098  48.523  1.00  0.00    -0.064 N 
ATOM     53  HZ1 LYS     4      64.492  46.397  47.904  1.00 99.99     0.275 HD
ATOM     54  HZ2 LYS     4      66.021  46.680  48.405  1.00 99.99     0.275 HD
ATOM     55  HZ3 LYS     4      65.461  45.151  48.310  1.00 99.99     0.275 HD
ENDBRANCH  51  52
ENDBRANCH  50  51
ENDBRANCH  49  50
ENDBRANCH  48  49
ENDBRANCH  20  48
ENDBRANCH  17  20
ENDBRANCH  15  16
BRANCH  15  56
ATOM     56  CB  LEU     3      64.734  43.426  45.928  1.00  0.00     0.032 C 
BRANCH  56  57
ATOM     57  CG  LEU     3      66.053  42.864  45.378  1.00  0.00     0.002 C 
ATOM     58  CD2 LEU     3      66.130  41.361  45.652  1.00  0.00     0.000 C 
ATOM     59  CD1 LEU     3      67.269  43.573  45.983  1.00  0.00     0.000 C 
ENDBRANCH  56  57
ENDBRANCH  15  56
ENDBRANCH  12  15
ENDBRANCH  10  11
BRANCH  10  60
ATOM     60  CB  LYS     2      59.818  40.513  45.647  1.00  0.00     0.032 C 
BRANCH  60  61
ATOM     61  CG  LYS     2      58.432  40.998  46.099  1.00  0.00     0.004 C 
BRANCH  61  62
ATOM     62  CD  LYS     2      58.365  42.501  46.391  1.00  0.00     0.032 C 
BRANCH  62  63
ATOM     63  CE  LYS     2      57.284  42.781  47.441  1.00  0.00     0.206 C 
BRANCH  63  64
ATOM     64  NZ  LYS     2      56.970  44.213  47.561  1.00  0.00    -0.064 N 
ATOM     65  HZ3 LYS     2      56.291  44.355  48.280  1.00 99.99     0.275 HD
ATOM     66  HZ1 LYS     2      57.806  44.715  47.796  1.00 99.99     0.275 HD
ATOM     67  HZ2 LYS     2      56.618  44.558  46.691  1.00 99.99     0.275 HD
ENDBRANCH  63  64
ENDBRANCH  62  63
ENDBRANCH  61  62
ENDBRANCH  60  61
ENDBRANCH  10  60
ENDBRANCH   8  10
ENDBRANCH   5   6
BRANCH   5  68
ATOM     68  CB  LYS     1      59.424  43.935  40.531  1.00  0.00     0.040 C 
BRANCH  68  69
ATOM     69  CG  LYS     1      59.392  43.642  39.017  1.00  0.00     0.004 C 
BRANCH  69  70
ATOM     70  CD  LYS     1      60.514  42.710  38.528  1.00  0.00     0.032 C 
BRANCH  70  71
ATOM     71  CE  LYS     1      60.011  41.758  37.433  1.00  0.00     0.206 C 
BRANCH  71  72
ATOM     72  NZ  LYS     1      58.654  42.083  36.945  1.00  0.00    -0.064 N 
ATOM     73  HZ1 LYS     1      58.217  41.250  36.599  1.00 99.99     0.275 HD
ATOM     74  HZ2 LYS     1      58.100  42.450  37.691  1.00 99.99     0.275 HD
ATOM     75  HZ3 LYS     1      58.705  42.751  36.204  1.00 99.99     0.275 HD
ENDBRANCH  71  72
ENDBRANCH  70  71
ENDBRANCH  69  70
ENDBRANCH  68  69
ENDBRANCH   5  68
ENDBRANCH   1   5
TORSDOF 33
ENDMDL
MODEL 8
REMARK VINA RESULT:      -4.6      3.286     10.614
REMARK WARNING: 32 MAX_TORS EXCEEDED!!!
REMARK  33 active torsions:
REMARK  status: ('A' for Active; 'I' for Inactive)
REMARK    1  A    between atoms: N_1  and  CA_2 
REMARK    2  A    between atoms: CA_2  and  C_3 
REMARK    3  A    between atoms: CA_2  and  CB_5 
REMARK       I    between atoms: C_3  and  N_16 
REMARK    4  A    between atoms: CB_5  and  CG_6 
REMARK    5  A    between atoms: CG_6  and  CD_7 
REMARK    6  A    between atoms: CD_7  and  CE_8 
REMARK    7  A    between atoms: CE_8  and  NZ_9 
REMARK    8  A    between atoms: N_16  and  CA_17 
REMARK    9  A    between atoms: CA_17  and  C_18 
REMARK   10  A    between atoms: CA_17  and  CB_20 
REMARK       I    between atoms: C_18  and  N_29 
REMARK   11  A    between atoms: CB_20  and  CG_21 
REMARK   12  A    between atoms: CG_21  and  CD_22 
REMARK   13  A    between atoms: CD_22  and  CE_23 
REMARK   14  A    between atoms: CE_23  and  NZ_24 
REMARK   15  A    between atoms: N_29  and  CA_30 
REMARK   16  A    between atoms: CA_30  and  C_31 
REMARK   17  A    between atoms: CA_30  and  CB_33 
REMARK       I    between atoms: C_31  and  N_38 
REMARK   18  A    between atoms: CB_33  and  CG_34 
REMARK   19  A    between atoms: N_38  and  CA_39 
REMARK   20  A    between atoms: CA_39  and  C_40 
REMARK   21  A    between atoms: CA_39  and  CB_42 
REMARK       I    between atoms: C_40  and  N_51 
REMARK   22  A    between atoms: CB_42  and  CG_43 
REMARK   23  A    between atoms: CG_43  and  CD_44 
REMARK   24  A    between atoms: CD_44  and  CE_45 
REMARK   25  A    between atoms: CE_45  and  NZ_46 
REMARK   26  A    between atoms: N_51  and  CA_52 
REMARK   27  A    between atoms: CA_52  and  C_53 
REMARK       I    between atoms: C_53  and  N_57 
REMARK   28  A    between atoms: N_57  and  CA_58 
REMARK   29  A    between atoms: CA_58  and  C_59 
REMARK   30  A    between atoms: CA_58  and  CB_61 
REMARK       I    between atoms: C_59  and  N_69 
REMARK   31  A    between atoms: CB_61  and  CG_62 
REMARK   32  A    between atoms: N_69  and  CA_70 
REMARK   33  A    between atoms: CA_70  and  C_71 
ROOT
ATOM      1  N   LYS     1      58.258  37.518  45.860  1.00  0.00    -0.058 N 
ATOM      2  H1  LYS     1      58.566  37.646  46.797  1.00 99.99     0.276 HD
ATOM      3  H2  LYS     1      57.523  36.874  45.834  1.00 99.99     0.276 HD
ATOM      4  H3  LYS     1      58.995  37.108  45.341  1.00 99.99     0.276 HD
ENDROOT
BRANCH   1   5
ATOM      5  CA  LYS     1      57.880  38.854  45.302  1.00  0.00     0.255 C 
BRANCH   5   6
ATOM      6  C   LYS     1      58.174  39.908  46.384  1.00  0.00     0.259 C 
ATOM      7  O   LYS     1      58.452  39.463  47.500  1.00  0.00    -0.271 OA
ATOM      8  N   LYS     2      57.725  41.164  46.207  1.00  0.00    -0.338 N 
ATOM      9  H   LYS     2      57.208  41.403  45.386  1.00 99.99     0.164 HD
BRANCH   8  10
ATOM     10  CA  LYS     2      57.965  42.321  47.115  1.00  0.00     0.159 C 
BRANCH  10  11
ATOM     11  C   LYS     2      56.939  42.553  48.241  1.00  0.00     0.251 C 
ATOM     12  N   LEU     3      56.928  41.696  49.274  1.00  0.00    -0.338 N 
ATOM     13  H   LEU     3      57.475  40.862  49.251  1.00 99.99     0.164 HD
ATOM     14  O   LYS     2      56.213  43.548  48.186  1.00  0.00    -0.271 OA
BRANCH  12  15
ATOM     15  CA  LEU     3      56.088  41.837  50.484  1.00  0.00     0.159 C 
BRANCH  15  16
ATOM     16  C   LEU     3      56.849  42.368  51.713  1.00  0.00     0.251 C 
ATOM     17  N   LYS     4      57.961  41.704  52.058  1.00  0.00    -0.338 N 
ATOM     18  H   LYS     4      58.285  40.950  51.481  1.00 99.99     0.164 HD
ATOM     19  O   LEU     3      56.613  43.517  52.091  1.00  0.00    -0.271 OA
BRANCH  17  20
ATOM     20  CA  LYS     4      58.868  42.014  53.183  1.00  0.00     0.159 C 
BRANCH  20  21
ATOM     21  C   LYS     4      60.359  42.261  52.860  1.00  0.00     0.251 C 
ATOM     22  N   ALA     5      61.225  41.340  53.286  1.00  0.00    -0.338 N 
ATOM     23  H   ALA     5      60.923  40.618  53.913  1.00 99.99     0.164 HD
ATOM     24  O   LYS     4      60.732  43.326  52.359  1.00  0.00    -0.271 OA
BRANCH  22  25
ATOM     25  CA  ALA     5      62.665  41.307  52.971  1.00  0.00     0.159 C 
ATOM     26  CB  ALA     5      63.320  40.304  53.929  1.00  0.00     0.034 C 
BRANCH  25  27
ATOM     27  C   ALA     5      62.967  40.937  51.502  1.00  0.00     0.251 C 
ATOM     28  N   PHE     6      63.336  41.953  50.721  1.00  0.00    -0.337 N 
ATOM     29  H   PHE     6      63.284  42.889  51.076  1.00 99.99     0.164 HD
ATOM     30  O   ALA     5      62.800  39.793  51.075  1.00  0.00    -0.271 OA
BRANCH  28  31
ATOM     31  CA  PHE     6      63.707  41.880  49.295  1.00  0.00     0.164 C 
BRANCH  31  32
ATOM     32  C   PHE     6      65.074  42.545  49.022  1.00  0.00     0.251 C 
ATOM     33  O   PHE     6      66.042  41.879  48.657  1.00  0.00    -0.271 OA
ATOM     34  N   ALA     7      65.104  43.875  49.154  1.00  0.00    -0.336 N 
ATOM     35  H   ALA     7      64.255  44.371  49.354  1.00 99.99     0.164 HD
BRANCH  34  36
ATOM     36  CA  ALA     7      66.274  44.764  48.979  1.00  0.00     0.168 C 
ATOM     37  CB  ALA     7      66.509  45.027  47.484  1.00  0.00     0.036 C 
BRANCH  36  38
ATOM     38  C   ALA     7      66.026  46.115  49.671  1.00  0.00     0.206 C 
ATOM     39  O   ALA     7      65.103  46.177  50.519  1.00 99.99    -0.646 OA
ATOM     40  OXT ALA     7      66.661  47.096  49.223  1.00 99.99    -0.646 OA
ENDBRANCH  36  38
ENDBRANCH  34  36
ENDBRANCH  31  32
BRANCH  31  41
ATOM     41  CB  PHE     6      62.576  42.560  48.508  1.00  0.00     0.056 C 
BRANCH  41  42
ATOM     42  CG  PHE     6      62.524  42.174  47.022  1.00  0.00    -0.044 A 
ATOM     43  CD2 PHE     6      63.055  43.048  46.080  1.00  0.00     0.008 A 
ATOM     44  CE2 PHE     6      63.026  42.710  44.725  1.00  0.00     0.001 A 
ATOM     45  CZ  PHE     6      62.461  41.494  44.328  1.00  0.00     0.000 A 
ATOM     46  CE1 PHE     6      61.918  40.642  45.281  1.00  0.00     0.001 A 
ATOM     47  CD1 PHE     6      61.950  40.983  46.620  1.00  0.00     0.008 A 
ENDBRANCH  41  42
ENDBRANCH  31  41
ENDBRANCH  28  31
ENDBRANCH  25  27
ENDBRANCH  22  25
ENDBRANCH  20  21
BRANCH  20  48
ATOM     48  CB  LYS     4      58.794  40.875  54.214  1.00  0.00     0.032 C 
BRANCH  48  49
ATOM     49  CG  LYS     4      57.413  40.243  54.385  1.00  0.00     0.004 C 
BRANCH  49  50
ATOM     50  CD  LYS     4      57.597  38.786  54.816  1.00  0.00     0.032 C 
BRANCH  50  51
ATOM     51  CE  LYS     4      56.739  37.829  53.986  1.00  0.00     0.206 C 
BRANCH  51  52
ATOM     52  NZ  LYS     4      55.374  38.352  53.829  1.00  0.00    -0.064 N 
ATOM     53  HZ1 LYS     4      54.875  38.247  54.690  1.00 99.99     0.275 HD
ATOM     54  HZ2 LYS     4      55.404  39.318  53.574  1.00 99.99     0.275 HD
ATOM     55  HZ3 LYS     4      54.902  37.836  53.113  1.00 99.99     0.275 HD
ENDBRANCH  51  52
ENDBRANCH  50  51
ENDBRANCH  49  50
ENDBRANCH  48  49
ENDBRANCH  20  48
ENDBRANCH  17  20
ENDBRANCH  15  16
BRANCH  15  56
ATOM     56  CB  LEU     3      55.411  40.483  50.773  1.00  0.00     0.032 C 
BRANCH  56  57
ATOM     57  CG  LEU     3      54.072  40.270  50.052  1.00  0.00     0.002 C 
ATOM     58  CD2 LEU     3      53.421  41.622  49.756  1.00  0.00     0.000 C 
ATOM     59  CD1 LEU     3      53.118  39.395  50.873  1.00  0.00     0.000 C 
ENDBRANCH  56  57
ENDBRANCH  15  56
ENDBRANCH  12  15
ENDBRANCH  10  11
BRANCH  10  60
ATOM     60  CB  LYS     2      58.260  43.608  46.322  1.00  0.00     0.032 C 
BRANCH  60  61
ATOM     61  CG  LYS     2      59.419  43.392  45.336  1.00  0.00     0.004 C 
BRANCH  61  62
ATOM     62  CD  LYS     2      59.050  43.665  43.874  1.00  0.00     0.032 C 
BRANCH  62  63
ATOM     63  CE  LYS     2      59.045  42.352  43.083  1.00  0.00     0.206 C 
BRANCH  63  64
ATOM     64  NZ  LYS     2      57.685  41.870  42.797  1.00  0.00    -0.064 N 
ATOM     65  HZ3 LYS     2      57.626  41.558  41.850  1.00 99.99     0.275 HD
ATOM     66  HZ1 LYS     2      57.472  41.105  43.408  1.00 99.99     0.275 HD
ATOM     67  HZ2 LYS     2      57.024  42.604  42.952  1.00 99.99     0.275 HD
ENDBRANCH  63  64
ENDBRANCH  62  63
ENDBRANCH  61  62
ENDBRANCH  60  61
ENDBRANCH  10  60
ENDBRANCH   8  10
ENDBRANCH   5   6
BRANCH   5  68
ATOM     68  CB  LYS     1      56.455  38.881  44.712  1.00  0.00     0.040 C 
BRANCH  68  69
ATOM     69  CG  LYS     1      56.429  38.409  43.244  1.00  0.00     0.004 C 
BRANCH  69  70
ATOM     70  CD  LYS     1      55.533  37.185  42.989  1.00  0.00     0.032 C 
BRANCH  70  71
ATOM     71  CE  LYS     1      55.009  36.593  44.306  1.00  0.00     0.206 C 
BRANCH  71  72
ATOM     72  NZ  LYS     1      53.549  36.734  44.478  1.00  0.00    -0.064 N 
ATOM     73  HZ1 LYS     1      53.335  37.677  44.745  1.00 99.99     0.275 HD
ATOM     74  HZ2 LYS     1      53.081  36.531  43.620  1.00 99.99     0.275 HD
ATOM     75  HZ3 LYS     1      53.224  36.116  45.193  1.00 99.99     0.275 HD
ENDBRANCH  71  72
ENDBRANCH  70  71
ENDBRANCH  69  70
ENDBRANCH  68  69
ENDBRANCH   5  68
ENDBRANCH   1   5
TORSDOF 33
ENDMDL
MODEL 9
REMARK VINA RESULT:      -4.6      4.586      8.301
REMARK WARNING: 32 MAX_TORS EXCEEDED!!!
REMARK  33 active torsions:
REMARK  status: ('A' for Active; 'I' for Inactive)
REMARK    1  A    between atoms: N_1  and  CA_2 
REMARK    2  A    between atoms: CA_2  and  C_3 
REMARK    3  A    between atoms: CA_2  and  CB_5 
REMARK       I    between atoms: C_3  and  N_16 
REMARK    4  A    between atoms: CB_5  and  CG_6 
REMARK    5  A    between atoms: CG_6  and  CD_7 
REMARK    6  A    between atoms: CD_7  and  CE_8 
REMARK    7  A    between atoms: CE_8  and  NZ_9 
REMARK    8  A    between atoms: N_16  and  CA_17 
REMARK    9  A    between atoms: CA_17  and  C_18 
REMARK   10  A    between atoms: CA_17  and  CB_20 
REMARK       I    between atoms: C_18  and  N_29 
REMARK   11  A    between atoms: CB_20  and  CG_21 
REMARK   12  A    between atoms: CG_21  and  CD_22 
REMARK   13  A    between atoms: CD_22  and  CE_23 
REMARK   14  A    between atoms: CE_23  and  NZ_24 
REMARK   15  A    between atoms: N_29  and  CA_30 
REMARK   16  A    between atoms: CA_30  and  C_31 
REMARK   17  A    between atoms: CA_30  and  CB_33 
REMARK       I    between atoms: C_31  and  N_38 
REMARK   18  A    between atoms: CB_33  and  CG_34 
REMARK   19  A    between atoms: N_38  and  CA_39 
REMARK   20  A    between atoms: CA_39  and  C_40 
REMARK   21  A    between atoms: CA_39  and  CB_42 
REMARK       I    between atoms: C_40  and  N_51 
REMARK   22  A    between atoms: CB_42  and  CG_43 
REMARK   23  A    between atoms: CG_43  and  CD_44 
REMARK   24  A    between atoms: CD_44  and  CE_45 
REMARK   25  A    between atoms: CE_45  and  NZ_46 
REMARK   26  A    between atoms: N_51  and  CA_52 
REMARK   27  A    between atoms: CA_52  and  C_53 
REMARK       I    between atoms: C_53  and  N_57 
REMARK   28  A    between atoms: N_57  and  CA_58 
REMARK   29  A    between atoms: CA_58  and  C_59 
REMARK   30  A    between atoms: CA_58  and  CB_61 
REMARK       I    between atoms: C_59  and  N_69 
REMARK   31  A    between atoms: CB_61  and  CG_62 
REMARK   32  A    between atoms: N_69  and  CA_70 
REMARK   33  A    between atoms: CA_70  and  C_71 
ROOT
ATOM      1  N   LYS     1      61.111  41.601  53.867  1.00  0.00    -0.058 N 
ATOM      2  H1  LYS     1      60.337  41.425  53.268  1.00 99.99     0.276 HD
ATOM      3  H2  LYS     1      61.229  40.856  54.488  1.00 99.99     0.276 HD
ATOM      4  H3  LYS     1      60.901  42.390  54.427  1.00 99.99     0.276 HD
ENDROOT
BRANCH   1   5
ATOM      5  CA  LYS     1      62.318  41.846  53.016  1.00  0.00     0.255 C 
BRANCH   5   6
ATOM      6  C   LYS     1      61.897  42.790  51.876  1.00  0.00     0.259 C 
ATOM      7  O   LYS     1      61.577  43.931  52.219  1.00  0.00    -0.271 OA
ATOM      8  N   LYS     2      61.501  42.259  50.705  1.00  0.00    -0.338 N 
ATOM      9  H   LYS     2      61.481  41.268  50.583  1.00 99.99     0.164 HD
BRANCH   8  10
ATOM     10  CA  LYS     2      61.117  43.016  49.480  1.00  0.00     0.159 C 
BRANCH  10  11
ATOM     11  C   LYS     2      59.672  42.847  48.975  1.00  0.00     0.251 C 
ATOM     12  N   LEU     3      59.314  43.494  47.854  1.00  0.00    -0.338 N 
ATOM     13  H   LEU     3      59.922  44.166  47.436  1.00 99.99     0.164 HD
ATOM     14  O   LYS     2      58.920  42.078  49.576  1.00  0.00    -0.271 OA
BRANCH  12  15
ATOM     15  CA  LEU     3      58.007  43.355  47.175  1.00  0.00     0.159 C 
BRANCH  15  16
ATOM     16  C   LEU     3      56.801  43.712  48.065  1.00  0.00     0.251 C 
ATOM     17  N   LYS     4      56.283  42.714  48.793  1.00  0.00    -0.338 N 
ATOM     18  H   LYS     4      56.727  41.814  48.786  1.00 99.99     0.164 HD
ATOM     19  O   LEU     3      56.599  44.901  48.320  1.00  0.00    -0.271 OA
BRANCH  17  20
ATOM     20  CA  LYS     4      55.138  42.797  49.725  1.00  0.00     0.159 C 
BRANCH  20  21
ATOM     21  C   LYS     4      55.444  42.830  51.240  1.00  0.00     0.251 C 
ATOM     22  N   ALA     5      55.485  41.654  51.869  1.00  0.00    -0.338 N 
ATOM     23  H   ALA     5      55.178  40.821  51.400  1.00 99.99     0.164 HD
ATOM     24  O   LYS     4      55.505  43.899  51.853  1.00  0.00    -0.271 OA
BRANCH  22  25
ATOM     25  CA  ALA     5      55.892  41.444  53.271  1.00  0.00     0.159 C 
ATOM     26  CB  ALA     5      54.898  40.454  53.893  1.00  0.00     0.034 C 
BRANCH  25  27
ATOM     27  C   ALA     5      57.342  40.934  53.424  1.00  0.00     0.251 C 
ATOM     28  N   PHE     6      57.525  39.642  53.150  1.00  0.00    -0.337 N 
ATOM     29  H   PHE     6      56.728  39.058  52.985  1.00 99.99     0.164 HD
ATOM     30  O   ALA     5      58.243  41.662  53.844  1.00  0.00    -0.271 OA
BRANCH  28  31
ATOM     31  CA  PHE     6      58.802  38.905  53.188  1.00  0.00     0.164 C 
BRANCH  31  32
ATOM     32  C   PHE     6      59.077  38.163  51.861  1.00  0.00     0.251 C 
ATOM     33  O   PHE     6      59.254  36.946  51.841  1.00  0.00    -0.271 OA
ATOM     34  N   ALA     7      59.049  38.922  50.761  1.00  0.00    -0.336 N 
ATOM     35  H   ALA     7      58.797  39.890  50.834  1.00 99.99     0.164 HD
BRANCH  34  36
ATOM     36  CA  ALA     7      59.299  38.486  49.369  1.00  0.00     0.168 C 
ATOM     37  CB  ALA     7      58.090  38.837  48.489  1.00  0.00     0.036 C 
BRANCH  36  38
ATOM     38  C   ALA     7      60.533  39.204  48.798  1.00  0.00     0.206 C 
ATOM     39  O   ALA     7      61.478  39.457  49.583  1.00 99.99    -0.646 OA
ATOM     40  OXT ALA     7      60.439  39.625  47.622  1.00 99.99    -0.646 OA
ENDBRANCH  36  38
ENDBRANCH  34  36
ENDBRANCH  31  32
BRANCH  31  41
ATOM     41  CB  PHE     6      58.718  37.934  54.376  1.00  0.00     0.056 C 
BRANCH  41  42
ATOM     42  CG  PHE     6      59.829  38.122  55.421  1.00  0.00    -0.044 A 
ATOM     43  CD2 PHE     6      59.913  39.327  56.106  1.00  0.00     0.008 A 
ATOM     44  CE2 PHE     6      60.910  39.512  57.067  1.00  0.00     0.001 A 
ATOM     45  CZ  PHE     6      61.818  38.481  57.329  1.00  0.00     0.000 A 
ATOM     46  CE1 PHE     6      61.730  37.289  56.620  1.00  0.00     0.001 A 
ATOM     47  CD1 PHE     6      60.741  37.113  55.671  1.00  0.00     0.008 A 
ENDBRANCH  41  42
ENDBRANCH  31  41
ENDBRANCH  28  31
ENDBRANCH  25  27
ENDBRANCH  22  25
ENDBRANCH  20  21
BRANCH  20  48
ATOM     48  CB  LYS     4      54.194  41.611  49.463  1.00  0.00     0.032 C 
BRANCH  48  49
ATOM     49  CG  LYS     4      54.675  40.619  48.406  1.00  0.00     0.004 C 
BRANCH  49  50
ATOM     50  CD  LYS     4      54.092  39.242  48.733  1.00  0.00     0.032 C 
BRANCH  50  51
ATOM     51  CE  LYS     4      54.023  38.990  50.241  1.00  0.00     0.206 C 
BRANCH  51  52
ATOM     52  NZ  LYS     4      55.232  38.298  50.712  1.00  0.00    -0.064 N 
ATOM     53  HZ1 LYS     4      55.793  38.933  51.244  1.00 99.99     0.275 HD
ATOM     54  HZ2 LYS     4      54.979  37.516  51.280  1.00 99.99     0.275 HD
ATOM     55  HZ3 LYS     4      55.758  37.978  49.923  1.00 99.99     0.275 HD
ENDBRANCH  51  52
ENDBRANCH  50  51
ENDBRANCH  49  50
ENDBRANCH  48  49
ENDBRANCH  20  48
ENDBRANCH  17  20
ENDBRANCH  15  16
BRANCH  15  56
ATOM     56  CB  LEU     3      57.896  41.926  46.609  1.00  0.00     0.032 C 
BRANCH  56  57
ATOM     57  CG  LEU     3      57.906  41.841  45.076  1.00  0.00     0.002 C 
ATOM     58  CD2 LEU     3      57.746  40.385  44.636  1.00  0.00     0.000 C 
ATOM     59  CD1 LEU     3      59.190  42.433  44.482  1.00  0.00     0.000 C 
ENDBRANCH  56  57
ENDBRANCH  15  56
ENDBRANCH  12  15
ENDBRANCH  10  11
BRANCH  10  60
ATOM     60  CB  LYS     2      62.153  42.828  48.354  1.00  0.00     0.032 C 
BRANCH  60  61
ATOM     61  CG  LYS     2      63.059  44.062  48.229  1.00  0.00     0.004 C 
BRANCH  61  62
ATOM     62  CD  LYS     2      64.085  44.197  49.359  1.00  0.00     0.032 C 
BRANCH  62  63
ATOM     63  CE  LYS     2      64.122  45.645  49.861  1.00  0.00     0.206 C 
BRANCH  63  64
ATOM     64  NZ  LYS     2      62.935  45.999  50.654  1.00  0.00    -0.064 N 
ATOM     65  HZ3 LYS     2      62.108  45.691  50.186  1.00 99.99     0.275 HD
ATOM     66  HZ1 LYS     2      62.991  45.552  51.549  1.00 99.99     0.275 HD
ATOM     67  HZ2 LYS     2      62.898  46.989  50.787  1.00 99.99     0.275 HD
ENDBRANCH  63  64
ENDBRANCH  62  63
ENDBRANCH  61  62
ENDBRANCH  60  61
ENDBRANCH  10  60
ENDBRANCH   8  10
ENDBRANCH   5   6
BRANCH   5  68
ATOM     68  CB  LYS     1      63.024  40.546  52.581  1.00  0.00     0.040 C 
BRANCH  68  69
ATOM     69  CG  LYS     1      62.817  39.408  53.601  1.00  0.00     0.004 C 
BRANCH  69  70
ATOM     70  CD  LYS     1      64.122  38.774  54.116  1.00  0.00     0.032 C 
BRANCH  70  71
ATOM     71  CE  LYS     1      65.353  39.488  53.538  1.00  0.00     0.206 C 
BRANCH  71  72
ATOM     72  NZ  LYS     1      65.926  40.505  54.444  1.00  0.00    -0.064 N 
ATOM     73  HZ1 LYS     1      66.923  40.404  54.468  1.00 99.99     0.275 HD
ATOM     74  HZ2 LYS     1      65.704  41.421  54.115  1.00 99.99     0.275 HD
ATOM     75  HZ3 LYS     1      65.568  40.384  55.369  1.00 99.99     0.275 HD
ENDBRANCH  71  72
ENDBRANCH  70  71
ENDBRANCH  69  70
ENDBRANCH  68  69
ENDBRANCH   5  68
ENDBRANCH   1   5
TORSDOF 33
ENDMDL
