MODEL 1
REMARK VINA RESULT:      -4.9      0.000      0.000
REMARK  21 active torsions:
REMARK  status: ('A' for Active; 'I' for Inactive)
REMARK    1  A    between atoms: N_1  and  CA_2 
REMARK    2  A    between atoms: CA_2  and  CB_5 
REMARK    3  A    between atoms: CA_2  and  C_3 
REMARK       I    between atoms: C_3  and  N_12 
REMARK    4  A    between atoms: CB_5  and  CG1_6 
REMARK    5  A    between atoms: N_12  and  CA_13 
REMARK    6  A    between atoms: CA_13  and  CB_16 
REMARK    7  A    between atoms: CA_13  and  C_14 
REMARK       I    between atoms: C_14  and  N_29 
REMARK    8  A    between atoms: CB_16  and  CG_17 
REMARK    9  A    between atoms: CG_17  and  CD_18 
REMARK   10  A    between atoms: CD_18  and  NE_19 
REMARK       I    between atoms: NE_19  and  CZ_20 
REMARK       I    between atoms: CZ_20  and  NH1_21 
REMARK   11  A    between atoms: N_29  and  CA_30 
REMARK   12  A    between atoms: CA_30  and  CB_33 
REMARK   13  A    between atoms: CA_30  and  C_31 
REMARK       I    between atoms: C_31  and  N_38 
REMARK   14  A    between atoms: CB_33  and  CG1_34 
REMARK   15  A    between atoms: N_38  and  CA_39 
REMARK   16  A    between atoms: CA_39  and  CB_42 
REMARK   17  A    between atoms: CA_39  and  C_40 
REMARK   18  A    between atoms: CB_42  and  CG_43 
REMARK   19  A    between atoms: CG_43  and  CD_44 
REMARK   20  A    between atoms: CD_44  and  CE_45 
REMARK   21  A    between atoms: CE_45  and  NZ_46 
ROOT
ATOM      1  N   ILE A   1      58.889  43.738  47.805  1.00  0.00    -0.058 N 
ATOM      2  H1  ILE A   1      58.945  44.568  48.362  1.00 99.99     0.276 HD
ATOM      3  H2  ILE A   1      59.481  43.059  48.198  1.00 99.99     0.276 HD
ATOM      4  H3  ILE A   1      59.257  43.933  46.914  1.00 99.99     0.276 HD
ENDROOT
BRANCH   1   5
ATOM      5  CA  ILE A   1      57.466  43.325  47.791  1.00  0.00     0.255 C 
BRANCH   5   6
ATOM      6  CB  ILE A   1      57.213  42.240  46.711  1.00  0.00     0.037 C 
ATOM      7  CG2 ILE A   1      58.241  42.312  45.566  1.00  0.00     0.002 C 
BRANCH   6   8
ATOM      8  CG1 ILE A   1      57.117  40.829  47.330  1.00  0.00     0.002 C 
ATOM      9  CD  ILE A   1      58.386  39.971  47.240  1.00  0.00     0.000 C 
ENDBRANCH   6   8
ENDBRANCH   5   6
BRANCH   5  10
ATOM     10  C   ILE A   1      57.100  42.884  49.233  1.00  0.00     0.259 C 
ATOM     11  O   ILE A   1      55.920  42.987  49.607  1.00  0.00    -0.271 OA
ATOM     12  N   ARG A   2      58.022  42.306  49.985  1.00  0.00    -0.338 N 
ATOM     13  H   ARG A   2      58.967  42.145  49.672  1.00 99.99     0.164 HD
BRANCH  12  14
ATOM     14  CA  ARG A   2      57.795  41.872  51.377  1.00  0.00     0.159 C 
BRANCH  14  15
ATOM     15  CB  ARG A   2      57.676  40.340  51.397  1.00  0.00     0.034 C 
BRANCH  15  16
ATOM     16  CG  ARG A   2      56.295  39.852  51.849  1.00  0.00     0.027 C 
BRANCH  16  17
ATOM     17  CD  ARG A   2      55.534  39.226  50.682  1.00  0.00     0.116 C 
BRANCH  17  18
ATOM     18  NE  ARG A   2      54.808  40.283  49.959  1.00  0.00    -0.212 N 
ATOM     19  CZ  ARG A   2      53.525  40.642  50.125  1.00  0.00     0.666 C 
ATOM     20  NH2 ARG A   2      52.707  40.096  51.002  1.00  0.00    -0.235 N 
ATOM     21  NH1 ARG A   2      52.946  41.609  49.437  1.00  0.00    -0.235 N 
ATOM     22 1HH2 ARG A   2      51.776  40.451  51.037  1.00 99.99     0.174 HD
ATOM     23 2HH2 ARG A   2      52.998  39.357  51.610  1.00 99.99     0.174 HD
ATOM     24 1HH1 ARG A   2      51.992  41.786  49.653  1.00 99.99     0.174 HD
ATOM     25 2HH1 ARG A   2      53.412  42.149  48.735  1.00 99.99     0.174 HD
ATOM     26  HE  ARG A   2      55.354  40.749  49.263  1.00 99.99     0.178 HD
ENDBRANCH  17  18
ENDBRANCH  16  17
ENDBRANCH  15  16
ENDBRANCH  14  15
BRANCH  14  27
ATOM     27  C   ARG A   2      58.991  42.355  52.214  1.00  0.00     0.251 C 
ATOM     28  O   ARG A   2      58.801  43.174  53.128  1.00  0.00    -0.271 OA
ATOM     29  N   ILE A   3      60.181  41.881  51.908  1.00  0.00    -0.338 N 
ATOM     30  H   ILE A   3      60.336  41.334  51.072  1.00 99.99     0.164 HD
BRANCH  29  31
ATOM     31  CA  ILE A   3      61.429  42.187  52.644  1.00  0.00     0.159 C 
BRANCH  31  32
ATOM     32  CB  ILE A   3      62.338  40.936  52.721  1.00  0.00     0.029 C 
ATOM     33  CG2 ILE A   3      63.262  40.945  53.953  1.00  0.00     0.002 C 
BRANCH  32  34
ATOM     34  CG1 ILE A   3      61.521  39.640  52.559  1.00  0.00     0.002 C 
ATOM     35  CD  ILE A   3      61.027  39.029  53.873  1.00  0.00     0.000 C 
ENDBRANCH  32  34
ENDBRANCH  31  32
BRANCH  31  36
ATOM     36  C   ILE A   3      62.090  43.415  51.983  1.00  0.00     0.251 C 
ATOM     37  O   ILE A   3      61.996  44.519  52.535  1.00  0.00    -0.271 OA
ATOM     38  N   LYS A   4      62.856  43.183  50.929  1.00  0.00    -0.336 N 
ATOM     39  H   LYS A   4      63.004  42.251  50.585  1.00 99.99     0.164 HD
BRANCH  38  40
ATOM     40  CA  LYS A   4      63.551  44.248  50.165  1.00  0.00     0.168 C 
BRANCH  40  41
ATOM     41  CB  LYS A   4      64.567  43.581  49.242  1.00  0.00     0.033 C 
BRANCH  41  42
ATOM     42  CG  LYS A   4      65.850  44.392  49.049  1.00  0.00     0.004 C 
BRANCH  42  43
ATOM     43  CD  LYS A   4      66.874  43.572  48.276  1.00  0.00     0.032 C 
BRANCH  43  44
ATOM     44  CE  LYS A   4      67.197  44.266  46.955  1.00  0.00     0.206 C 
BRANCH  44  45
ATOM     45  NZ  LYS A   4      66.363  45.460  46.791  1.00  0.00    -0.064 N 
ATOM     46  HZ1 LYS A   4      65.896  45.657  47.653  1.00 99.99     0.275 HD
ATOM     47  HZ2 LYS A   4      66.945  46.233  46.540  1.00 99.99     0.275 HD
ATOM     48  HZ3 LYS A   4      65.688  45.302  46.070  1.00 99.99     0.275 HD
ENDBRANCH  44  45
ENDBRANCH  43  44
ENDBRANCH  42  43
ENDBRANCH  41  42
ENDBRANCH  40  41
BRANCH  40  49
ATOM     49  C   LYS A   4      62.549  45.132  49.352  1.00  0.00     0.206 C 
ATOM     50  O   LYS A   4      62.689  46.370  49.479  1.00  0.00    -0.646 OA
ATOM     51  OXT LYS A   4      61.726  44.567  48.627  1.00  0.00    -0.646 OA
ENDBRANCH  40  49
ENDBRANCH  38  40
ENDBRANCH  31  36
ENDBRANCH  29  31
ENDBRANCH  14  27
ENDBRANCH  12  14
ENDBRANCH   5  10
ENDBRANCH   1   5
TORSDOF 21
ENDMDL
MODEL 2
REMARK VINA RESULT:      -4.7      2.041      3.108
REMARK  21 active torsions:
REMARK  status: ('A' for Active; 'I' for Inactive)
REMARK    1  A    between atoms: N_1  and  CA_2 
REMARK    2  A    between atoms: CA_2  and  CB_5 
REMARK    3  A    between atoms: CA_2  and  C_3 
REMARK       I    between atoms: C_3  and  N_12 
REMARK    4  A    between atoms: CB_5  and  CG1_6 
REMARK    5  A    between atoms: N_12  and  CA_13 
REMARK    6  A    between atoms: CA_13  and  CB_16 
REMARK    7  A    between atoms: CA_13  and  C_14 
REMARK       I    between atoms: C_14  and  N_29 
REMARK    8  A    between atoms: CB_16  and  CG_17 
REMARK    9  A    between atoms: CG_17  and  CD_18 
REMARK   10  A    between atoms: CD_18  and  NE_19 
REMARK       I    between atoms: NE_19  and  CZ_20 
REMARK       I    between atoms: CZ_20  and  NH1_21 
REMARK   11  A    between atoms: N_29  and  CA_30 
REMARK   12  A    between atoms: CA_30  and  CB_33 
REMARK   13  A    between atoms: CA_30  and  C_31 
REMARK       I    between atoms: C_31  and  N_38 
REMARK   14  A    between atoms: CB_33  and  CG1_34 
REMARK   15  A    between atoms: N_38  and  CA_39 
REMARK   16  A    between atoms: CA_39  and  CB_42 
REMARK   17  A    between atoms: CA_39  and  C_40 
REMARK   18  A    between atoms: CB_42  and  CG_43 
REMARK   19  A    between atoms: CG_43  and  CD_44 
REMARK   20  A    between atoms: CD_44  and  CE_45 
REMARK   21  A    between atoms: CE_45  and  NZ_46 
ROOT
ATOM      1  N   ILE A   1      56.985  42.025  46.708  1.00  0.00    -0.058 N 
ATOM      2  H1  ILE A   1      56.218  41.976  47.349  1.00 99.99     0.276 HD
ATOM      3  H2  ILE A   1      56.819  42.761  46.079  1.00 99.99     0.276 HD
ATOM      4  H3  ILE A   1      56.993  41.204  46.166  1.00 99.99     0.276 HD
ENDROOT
BRANCH   1   5
ATOM      5  CA  ILE A   1      58.210  42.222  47.518  1.00  0.00     0.255 C 
BRANCH   5   6
ATOM      6  CB  ILE A   1      59.158  43.252  46.850  1.00  0.00     0.037 C 
ATOM      7  CG2 ILE A   1      60.533  42.643  46.515  1.00  0.00     0.002 C 
BRANCH   6   8
ATOM      8  CG1 ILE A   1      58.498  43.926  45.627  1.00  0.00     0.002 C 
ATOM      9  CD  ILE A   1      59.202  43.707  44.282  1.00  0.00     0.000 C 
ENDBRANCH   6   8
ENDBRANCH   5   6
BRANCH   5  10
ATOM     10  C   ILE A   1      57.758  42.608  48.951  1.00  0.00     0.259 C 
ATOM     11  O   ILE A   1      56.859  43.454  49.086  1.00  0.00    -0.271 OA
ATOM     12  N   ARG A   2      58.256  41.948  49.984  1.00  0.00    -0.338 N 
ATOM     13  H   ARG A   2      58.932  41.206  49.890  1.00 99.99     0.164 HD
BRANCH  12  14
ATOM     14  CA  ARG A   2      57.920  42.246  51.390  1.00  0.00     0.159 C 
BRANCH  14  15
ATOM     15  CB  ARG A   2      57.171  41.041  51.979  1.00  0.00     0.034 C 
BRANCH  15  16
ATOM     16  CG  ARG A   2      57.834  39.702  51.642  1.00  0.00     0.027 C 
BRANCH  16  17
ATOM     17  CD  ARG A   2      58.085  38.888  52.910  1.00  0.00     0.116 C 
BRANCH  17  18
ATOM     18  NE  ARG A   2      59.342  39.340  53.531  1.00  0.00    -0.212 N 
ATOM     19  CZ  ARG A   2      59.473  40.105  54.625  1.00  0.00     0.666 C 
ATOM     20  NH2 ARG A   2      58.465  40.561  55.340  1.00  0.00    -0.235 N 
ATOM     21  NH1 ARG A   2      60.642  40.465  55.125  1.00  0.00    -0.235 N 
ATOM     22 1HH2 ARG A   2      58.688  41.116  56.138  1.00 99.99     0.174 HD
ATOM     23 2HH2 ARG A   2      57.514  40.365  55.100  1.00 99.99     0.174 HD
ATOM     24 1HH1 ARG A   2      60.611  41.028  55.943  1.00 99.99     0.174 HD
ATOM     25 2HH1 ARG A   2      61.522  40.202  54.727  1.00 99.99     0.174 HD
ATOM     26  HE  ARG A   2      60.164  39.044  53.045  1.00 99.99     0.178 HD
ENDBRANCH  17  18
ENDBRANCH  16  17
ENDBRANCH  15  16
ENDBRANCH  14  15
BRANCH  14  27
ATOM     27  C   ARG A   2      59.239  42.510  52.136  1.00  0.00     0.251 C 
ATOM     28  O   ARG A   2      59.205  43.011  53.271  1.00  0.00    -0.271 OA
ATOM     29  N   ILE A   3      60.360  42.197  51.519  1.00  0.00    -0.338 N 
ATOM     30  H   ILE A   3      60.375  41.930  50.545  1.00 99.99     0.164 HD
BRANCH  29  31
ATOM     31  CA  ILE A   3      61.713  42.323  52.109  1.00  0.00     0.159 C 
BRANCH  31  32
ATOM     32  CB  ILE A   3      62.619  41.154  51.651  1.00  0.00     0.029 C 
ATOM     33  CG2 ILE A   3      63.314  40.442  52.826  1.00  0.00     0.002 C 
BRANCH  32  34
ATOM     34  CG1 ILE A   3      61.867  40.204  50.699  1.00  0.00     0.002 C 
ATOM     35  CD  ILE A   3      61.978  38.720  51.058  1.00  0.00     0.000 C 
ENDBRANCH  32  34
ENDBRANCH  31  32
BRANCH  31  36
ATOM     36  C   ILE A   3      62.261  43.725  51.765  1.00  0.00     0.251 C 
ATOM     37  O   ILE A   3      61.993  44.675  52.511  1.00  0.00    -0.271 OA
ATOM     38  N   LYS A   4      63.120  43.797  50.761  1.00  0.00    -0.336 N 
ATOM     39  H   LYS A   4      63.406  42.977  50.256  1.00 99.99     0.164 HD
BRANCH  38  40
ATOM     40  CA  LYS A   4      63.728  45.065  50.288  1.00  0.00     0.168 C 
BRANCH  40  41
ATOM     41  CB  LYS A   4      64.961  44.717  49.458  1.00  0.00     0.033 C 
BRANCH  41  42
ATOM     42  CG  LYS A   4      64.634  44.202  48.055  1.00  0.00     0.004 C 
BRANCH  42  43
ATOM     43  CD  LYS A   4      65.829  44.404  47.134  1.00  0.00     0.032 C 
BRANCH  43  44
ATOM     44  CE  LYS A   4      66.267  43.060  46.555  1.00  0.00     0.206 C 
BRANCH  44  45
ATOM     45  NZ  LYS A   4      67.100  43.267  45.367  1.00  0.00    -0.064 N 
ATOM     46  HZ1 LYS A   4      67.328  44.237  45.288  1.00 99.99     0.275 HD
ATOM     47  HZ2 LYS A   4      67.940  42.731  45.460  1.00 99.99     0.275 HD
ATOM     48  HZ3 LYS A   4      66.602  42.970  44.552  1.00 99.99     0.275 HD
ENDBRANCH  44  45
ENDBRANCH  43  44
ENDBRANCH  42  43
ENDBRANCH  41  42
ENDBRANCH  40  41
BRANCH  40  49
ATOM     49  C   LYS A   4      62.718  45.925  49.459  1.00  0.00     0.206 C 
ATOM     50  O   LYS A   4      61.674  45.337  49.095  1.00  0.00    -0.646 OA
ATOM     51  OXT LYS A   4      62.990  47.110  49.252  1.00  0.00    -0.646 OA
ENDBRANCH  40  49
ENDBRANCH  38  40
ENDBRANCH  31  36
ENDBRANCH  29  31
ENDBRANCH  14  27
ENDBRANCH  12  14
ENDBRANCH   5  10
ENDBRANCH   1   5
TORSDOF 21
ENDMDL
MODEL 3
REMARK VINA RESULT:      -4.7      2.007      8.884
REMARK  21 active torsions:
REMARK  status: ('A' for Active; 'I' for Inactive)
REMARK    1  A    between atoms: N_1  and  CA_2 
REMARK    2  A    between atoms: CA_2  and  CB_5 
REMARK    3  A    between atoms: CA_2  and  C_3 
REMARK       I    between atoms: C_3  and  N_12 
REMARK    4  A    between atoms: CB_5  and  CG1_6 
REMARK    5  A    between atoms: N_12  and  CA_13 
REMARK    6  A    between atoms: CA_13  and  CB_16 
REMARK    7  A    between atoms: CA_13  and  C_14 
REMARK       I    between atoms: C_14  and  N_29 
REMARK    8  A    between atoms: CB_16  and  CG_17 
REMARK    9  A    between atoms: CG_17  and  CD_18 
REMARK   10  A    between atoms: CD_18  and  NE_19 
REMARK       I    between atoms: NE_19  and  CZ_20 
REMARK       I    between atoms: CZ_20  and  NH1_21 
REMARK   11  A    between atoms: N_29  and  CA_30 
REMARK   12  A    between atoms: CA_30  and  CB_33 
REMARK   13  A    between atoms: CA_30  and  C_31 
REMARK       I    between atoms: C_31  and  N_38 
REMARK   14  A    between atoms: CB_33  and  CG1_34 
REMARK   15  A    between atoms: N_38  and  CA_39 
REMARK   16  A    between atoms: CA_39  and  CB_42 
REMARK   17  A    between atoms: CA_39  and  C_40 
REMARK   18  A    between atoms: CB_42  and  CG_43 
REMARK   19  A    between atoms: CG_43  and  CD_44 
REMARK   20  A    between atoms: CD_44  and  CE_45 
REMARK   21  A    between atoms: CE_45  and  NZ_46 
ROOT
ATOM      1  N   ILE A   1      58.377  42.842  53.042  1.00  0.00    -0.058 N 
ATOM      2  H1  ILE A   1      58.661  43.678  52.571  1.00 99.99     0.276 HD
ATOM      3  H2  ILE A   1      57.662  42.417  52.519  1.00 99.99     0.276 HD
ATOM      4  H3  ILE A   1      57.972  43.089  53.903  1.00 99.99     0.276 HD
ENDROOT
BRANCH   1   5
ATOM      5  CA  ILE A   1      59.583  41.990  53.168  1.00  0.00     0.255 C 
BRANCH   5   6
ATOM      6  CB  ILE A   1      59.214  40.486  53.074  1.00  0.00     0.037 C 
ATOM      7  CG2 ILE A   1      60.384  39.574  53.490  1.00  0.00     0.002 C 
BRANCH   6   8
ATOM      8  CG1 ILE A   1      57.915  40.168  53.847  1.00  0.00     0.002 C 
ATOM      9  CD  ILE A   1      58.057  40.042  55.369  1.00  0.00     0.000 C 
ENDBRANCH   6   8
ENDBRANCH   5   6
BRANCH   5  10
ATOM     10  C   ILE A   1      60.598  42.464  52.094  1.00  0.00     0.259 C 
ATOM     11  O   ILE A   1      61.584  43.126  52.456  1.00  0.00    -0.271 OA
ATOM     12  N   ARG A   2      60.451  42.057  50.844  1.00  0.00    -0.338 N 
ATOM     13  H   ARG A   2      59.699  41.457  50.544  1.00 99.99     0.164 HD
BRANCH  12  14
ATOM     14  CA  ARG A   2      61.338  42.466  49.737  1.00  0.00     0.159 C 
BRANCH  14  15
ATOM     15  CB  ARG A   2      61.899  41.201  49.069  1.00  0.00     0.034 C 
BRANCH  15  16
ATOM     16  CG  ARG A   2      63.025  41.499  48.074  1.00  0.00     0.027 C 
BRANCH  16  17
ATOM     17  CD  ARG A   2      64.176  42.231  48.762  1.00  0.00     0.116 C 
BRANCH  17  18
ATOM     18  NE  ARG A   2      64.697  43.268  47.855  1.00  0.00    -0.212 N 
ATOM     19  CZ  ARG A   2      65.507  44.289  48.174  1.00  0.00     0.666 C 
ATOM     20  NH2 ARG A   2      65.988  44.508  49.381  1.00  0.00    -0.235 N 
ATOM     21  NH1 ARG A   2      65.936  45.178  47.297  1.00  0.00    -0.235 N 
ATOM     22 1HH2 ARG A   2      66.586  45.298  49.495  1.00 99.99     0.174 HD
ATOM     23 2HH2 ARG A   2      65.766  43.915  50.156  1.00 99.99     0.174 HD
ATOM     24 1HH1 ARG A   2      66.537  45.886  47.653  1.00 99.99     0.174 HD
ATOM     25 2HH1 ARG A   2      65.689  45.167  46.327  1.00 99.99     0.174 HD
ATOM     26  HE  ARG A   2      64.374  43.183  46.912  1.00 99.99     0.178 HD
ENDBRANCH  17  18
ENDBRANCH  16  17
ENDBRANCH  15  16
ENDBRANCH  14  15
BRANCH  14  27
ATOM     27  C   ARG A   2      60.497  43.297  48.753  1.00  0.00     0.251 C 
ATOM     28  O   ARG A   2      60.976  44.337  48.274  1.00  0.00    -0.271 OA
ATOM     29  N   ILE A   3      59.285  42.865  48.472  1.00  0.00    -0.338 N 
ATOM     30  H   ILE A   3      58.860  42.102  48.981  1.00 99.99     0.164 HD
BRANCH  29  31
ATOM     31  CA  ILE A   3      58.364  43.502  47.502  1.00  0.00     0.159 C 
BRANCH  31  32
ATOM     32  CB  ILE A   3      58.321  42.695  46.181  1.00  0.00     0.029 C 
ATOM     33  CG2 ILE A   3      58.645  43.556  44.945  1.00  0.00     0.002 C 
BRANCH  32  34
ATOM     34  CG1 ILE A   3      59.159  41.406  46.284  1.00  0.00     0.002 C 
ATOM     35  CD  ILE A   3      60.402  41.380  45.391  1.00  0.00     0.000 C 
ENDBRANCH  32  34
ENDBRANCH  31  32
BRANCH  31  36
ATOM     36  C   ILE A   3      56.991  43.679  48.185  1.00  0.00     0.251 C 
ATOM     37  O   ILE A   3      56.325  44.693  47.942  1.00  0.00    -0.271 OA
ATOM     38  N   LYS A   4      56.536  42.649  48.880  1.00  0.00    -0.336 N 
ATOM     39  H   LYS A   4      57.057  41.793  48.952  1.00 99.99     0.164 HD
BRANCH  38  40
ATOM     40  CA  LYS A   4      55.246  42.656  49.613  1.00  0.00     0.168 C 
BRANCH  40  41
ATOM     41  CB  LYS A   4      54.618  41.271  49.477  1.00  0.00     0.033 C 
BRANCH  41  42
ATOM     42  CG  LYS A   4      53.109  41.251  49.734  1.00  0.00     0.004 C 
BRANCH  42  43
ATOM     43  CD  LYS A   4      52.724  39.978  50.476  1.00  0.00     0.032 C 
BRANCH  43  44
ATOM     44  CE  LYS A   4      53.945  39.413  51.198  1.00  0.00     0.206 C 
BRANCH  44  45
ATOM     45  NZ  LYS A   4      53.912  39.783  52.616  1.00  0.00    -0.064 N 
ATOM     46  HZ1 LYS A   4      54.139  40.752  52.710  1.00 99.99     0.275 HD
ATOM     47  HZ2 LYS A   4      52.993  39.617  52.975  1.00 99.99     0.275 HD
ATOM     48  HZ3 LYS A   4      54.573  39.230  53.123  1.00 99.99     0.275 HD
ENDBRANCH  44  45
ENDBRANCH  43  44
ENDBRANCH  42  43
ENDBRANCH  41  42
ENDBRANCH  40  41
BRANCH  40  49
ATOM     49  C   LYS A   4      55.430  43.044  51.117  1.00  0.00     0.206 C 
ATOM     50  O   LYS A   4      55.188  44.238  51.404  1.00  0.00    -0.646 OA
ATOM     51  OXT LYS A   4      55.760  42.161  51.913  1.00  0.00    -0.646 OA
ENDBRANCH  40  49
ENDBRANCH  38  40
ENDBRANCH  31  36
ENDBRANCH  29  31
ENDBRANCH  14  27
ENDBRANCH  12  14
ENDBRANCH   5  10
ENDBRANCH   1   5
TORSDOF 21
ENDMDL
MODEL 4
REMARK VINA RESULT:      -4.7      1.972      8.694
REMARK  21 active torsions:
REMARK  status: ('A' for Active; 'I' for Inactive)
REMARK    1  A    between atoms: N_1  and  CA_2 
REMARK    2  A    between atoms: CA_2  and  CB_5 
REMARK    3  A    between atoms: CA_2  and  C_3 
REMARK       I    between atoms: C_3  and  N_12 
REMARK    4  A    between atoms: CB_5  and  CG1_6 
REMARK    5  A    between atoms: N_12  and  CA_13 
REMARK    6  A    between atoms: CA_13  and  CB_16 
REMARK    7  A    between atoms: CA_13  and  C_14 
REMARK       I    between atoms: C_14  and  N_29 
REMARK    8  A    between atoms: CB_16  and  CG_17 
REMARK    9  A    between atoms: CG_17  and  CD_18 
REMARK   10  A    between atoms: CD_18  and  NE_19 
REMARK       I    between atoms: NE_19  and  CZ_20 
REMARK       I    between atoms: CZ_20  and  NH1_21 
REMARK   11  A    between atoms: N_29  and  CA_30 
REMARK   12  A    between atoms: CA_30  and  CB_33 
REMARK   13  A    between atoms: CA_30  and  C_31 
REMARK       I    between atoms: C_31  and  N_38 
REMARK   14  A    between atoms: CB_33  and  CG1_34 
REMARK   15  A    between atoms: N_38  and  CA_39 
REMARK   16  A    between atoms: CA_39  and  CB_42 
REMARK   17  A    between atoms: CA_39  and  C_40 
REMARK   18  A    between atoms: CB_42  and  CG_43 
REMARK   19  A    between atoms: CG_43  and  CD_44 
REMARK   20  A    between atoms: CD_44  and  CE_45 
REMARK   21  A    between atoms: CE_45  and  NZ_46 
ROOT
ATOM      1  N   ILE A   1      59.571  42.066  51.814  1.00  0.00    -0.058 N 
ATOM      2  H1  ILE A   1      59.136  42.208  52.704  1.00 99.99     0.276 HD
ATOM      3  H2  ILE A   1      59.105  42.617  51.147  1.00 99.99     0.276 HD
ATOM      4  H3  ILE A   1      59.426  41.132  51.540  1.00 99.99     0.276 HD
ENDROOT
BRANCH   1   5
ATOM      5  CA  ILE A   1      60.999  42.431  51.969  1.00  0.00     0.255 C 
BRANCH   5   6
ATOM      6  CB  ILE A   1      61.863  41.180  52.275  1.00  0.00     0.037 C 
ATOM      7  CG2 ILE A   1      62.376  41.170  53.728  1.00  0.00     0.002 C 
BRANCH   6   8
ATOM      8  CG1 ILE A   1      61.129  39.874  51.900  1.00  0.00     0.002 C 
ATOM      9  CD  ILE A   1      61.908  38.901  51.006  1.00  0.00     0.000 C 
ENDBRANCH   6   8
ENDBRANCH   5   6
BRANCH   5  10
ATOM     10  C   ILE A   1      61.420  43.198  50.687  1.00  0.00     0.259 C 
ATOM     11  O   ILE A   1      61.935  44.322  50.806  1.00  0.00    -0.271 OA
ATOM     12  N   ARG A   2      61.329  42.593  49.514  1.00  0.00    -0.338 N 
ATOM     13  H   ARG A   2      60.984  41.652  49.405  1.00 99.99     0.164 HD
BRANCH  12  14
ATOM     14  CA  ARG A   2      61.675  43.233  48.230  1.00  0.00     0.159 C 
BRANCH  14  15
ATOM     15  CB  ARG A   2      62.856  42.472  47.609  1.00  0.00     0.034 C 
BRANCH  15  16
ATOM     16  CG  ARG A   2      63.948  42.127  48.627  1.00  0.00     0.027 C 
BRANCH  16  17
ATOM     17  CD  ARG A   2      65.003  43.229  48.683  1.00  0.00     0.116 C 
BRANCH  17  18
ATOM     18  NE  ARG A   2      64.441  44.398  49.380  1.00  0.00    -0.212 N 
ATOM     19  CZ  ARG A   2      65.108  45.479  49.815  1.00  0.00     0.666 C 
ATOM     20  NH2 ARG A   2      66.402  45.668  49.657  1.00  0.00    -0.235 N 
ATOM     21  NH1 ARG A   2      64.527  46.493  50.430  1.00  0.00    -0.235 N 
ATOM     22 1HH2 ARG A   2      66.785  46.515  50.018  1.00 99.99     0.174 HD
ATOM     23 2HH2 ARG A   2      66.984  44.996  49.198  1.00 99.99     0.174 HD
ATOM     24 1HH1 ARG A   2      65.125  47.239  50.699  1.00 99.99     0.174 HD
ATOM     25 2HH1 ARG A   2      63.546  46.536  50.627  1.00 99.99     0.174 HD
ATOM     26  HE  ARG A   2      63.457  44.335  49.550  1.00 99.99     0.178 HD
ENDBRANCH  17  18
ENDBRANCH  16  17
ENDBRANCH  15  16
ENDBRANCH  14  15
BRANCH  14  27
ATOM     27  C   ARG A   2      60.428  43.170  47.331  1.00  0.00     0.251 C 
ATOM     28  O   ARG A   2      60.559  43.300  46.103  1.00  0.00    -0.271 OA
ATOM     29  N   ILE A   3      59.262  42.992  47.917  1.00  0.00    -0.338 N 
ATOM     30  H   ILE A   3      59.160  43.037  48.922  1.00 99.99     0.164 HD
BRANCH  29  31
ATOM     31  CA  ILE A   3      57.972  42.845  47.206  1.00  0.00     0.159 C 
BRANCH  31  32
ATOM     32  CB  ILE A   3      57.743  41.372  46.789  1.00  0.00     0.029 C 
ATOM     33  CG2 ILE A   3      57.863  41.156  45.269  1.00  0.00     0.002 C 
BRANCH  32  34
ATOM     34  CG1 ILE A   3      58.610  40.413  47.629  1.00  0.00     0.002 C 
ATOM     35  CD  ILE A   3      57.866  39.188  48.170  1.00  0.00     0.000 C 
ENDBRANCH  32  34
ENDBRANCH  31  32
BRANCH  31  36
ATOM     36  C   ILE A   3      56.859  43.434  48.099  1.00  0.00     0.251 C 
ATOM     37  O   ILE A   3      56.560  44.629  47.979  1.00  0.00    -0.271 OA
ATOM     38  N   LYS A   4      56.179  42.577  48.844  1.00  0.00    -0.336 N 
ATOM     39  H   LYS A   4      56.375  41.592  48.820  1.00 99.99     0.164 HD
BRANCH  38  40
ATOM     40  CA  LYS A   4      55.090  42.974  49.770  1.00  0.00     0.168 C 
BRANCH  40  41
ATOM     41  CB  LYS A   4      54.076  41.835  49.825  1.00  0.00     0.033 C 
BRANCH  41  42
ATOM     42  CG  LYS A   4      54.481  40.610  49.002  1.00  0.00     0.004 C 
BRANCH  42  43
ATOM     43  CD  LYS A   4      54.452  39.363  49.876  1.00  0.00     0.032 C 
BRANCH  43  44
ATOM     44  CE  LYS A   4      54.328  39.765  51.343  1.00  0.00     0.206 C 
BRANCH  44  45
ATOM     45  NZ  LYS A   4      55.611  39.587  52.029  1.00  0.00    -0.064 N 
ATOM     46  HZ1 LYS A   4      55.494  39.773  53.004  1.00 99.99     0.275 HD
ATOM     47  HZ2 LYS A   4      55.921  38.645  51.901  1.00 99.99     0.275 HD
ATOM     48  HZ3 LYS A   4      56.287  40.216  51.645  1.00 99.99     0.275 HD
ENDBRANCH  44  45
ENDBRANCH  43  44
ENDBRANCH  42  43
ENDBRANCH  41  42
ENDBRANCH  40  41
BRANCH  40  49
ATOM     49  C   LYS A   4      55.633  43.312  51.198  1.00  0.00     0.206 C 
ATOM     50  O   LYS A   4      55.156  44.338  51.734  1.00  0.00    -0.646 OA
ATOM     51  OXT LYS A   4      56.452  42.543  51.710  1.00  0.00    -0.646 OA
ENDBRANCH  40  49
ENDBRANCH  38  40
ENDBRANCH  31  36
ENDBRANCH  29  31
ENDBRANCH  14  27
ENDBRANCH  12  14
ENDBRANCH   5  10
ENDBRANCH   1   5
TORSDOF 21
ENDMDL
MODEL 5
REMARK VINA RESULT:      -4.7      2.525      8.933
REMARK  21 active torsions:
REMARK  status: ('A' for Active; 'I' for Inactive)
REMARK    1  A    between atoms: N_1  and  CA_2 
REMARK    2  A    between atoms: CA_2  and  CB_5 
REMARK    3  A    between atoms: CA_2  and  C_3 
REMARK       I    between atoms: C_3  and  N_12 
REMARK    4  A    between atoms: CB_5  and  CG1_6 
REMARK    5  A    between atoms: N_12  and  CA_13 
REMARK    6  A    between atoms: CA_13  and  CB_16 
REMARK    7  A    between atoms: CA_13  and  C_14 
REMARK       I    between atoms: C_14  and  N_29 
REMARK    8  A    between atoms: CB_16  and  CG_17 
REMARK    9  A    between atoms: CG_17  and  CD_18 
REMARK   10  A    between atoms: CD_18  and  NE_19 
REMARK       I    between atoms: NE_19  and  CZ_20 
REMARK       I    between atoms: CZ_20  and  NH1_21 
REMARK   11  A    between atoms: N_29  and  CA_30 
REMARK   12  A    between atoms: CA_30  and  CB_33 
REMARK   13  A    between atoms: CA_30  and  C_31 
REMARK       I    between atoms: C_31  and  N_38 
REMARK   14  A    between atoms: CB_33  and  CG1_34 
REMARK   15  A    between atoms: N_38  and  CA_39 
REMARK   16  A    between atoms: CA_39  and  CB_42 
REMARK   17  A    between atoms: CA_39  and  C_40 
REMARK   18  A    between atoms: CB_42  and  CG_43 
REMARK   19  A    between atoms: CG_43  and  CD_44 
REMARK   20  A    between atoms: CD_44  and  CE_45 
REMARK   21  A    between atoms: CE_45  and  NZ_46 
ROOT
ATOM      1  N   ILE A   1      66.215  40.614  46.824  1.00  0.00    -0.058 N 
ATOM      2  H1  ILE A   1      65.710  40.740  45.969  1.00 99.99     0.276 HD
ATOM      3  H2  ILE A   1      66.798  39.828  46.729  1.00 99.99     0.276 HD
ATOM      4  H3  ILE A   1      65.575  40.390  47.536  1.00 99.99     0.276 HD
ENDROOT
BRANCH   1   5
ATOM      5  CA  ILE A   1      66.970  41.866  47.067  1.00  0.00     0.255 C 
BRANCH   5   6
ATOM      6  CB  ILE A   1      67.112  42.691  45.761  1.00  0.00     0.037 C 
ATOM      7  CG2 ILE A   1      68.352  43.605  45.784  1.00  0.00     0.002 C 
BRANCH   6   8
ATOM      8  CG1 ILE A   1      67.068  41.789  44.508  1.00  0.00     0.002 C 
ATOM      9  CD  ILE A   1      68.428  41.338  43.960  1.00  0.00     0.000 C 
ENDBRANCH   6   8
ENDBRANCH   5   6
BRANCH   5  10
ATOM     10  C   ILE A   1      66.257  42.618  48.221  1.00  0.00     0.259 C 
ATOM     11  O   ILE A   1      66.947  43.237  49.047  1.00  0.00    -0.271 OA
ATOM     12  N   ARG A   2      64.935  42.679  48.232  1.00  0.00    -0.338 N 
ATOM     13  H   ARG A   2      64.358  42.246  47.528  1.00 99.99     0.164 HD
BRANCH  12  14
ATOM     14  CA  ARG A   2      64.151  43.343  49.291  1.00  0.00     0.159 C 
BRANCH  14  15
ATOM     15  CB  ARG A   2      63.330  44.474  48.655  1.00  0.00     0.034 C 
BRANCH  15  16
ATOM     16  CG  ARG A   2      63.484  45.811  49.387  1.00  0.00     0.027 C 
BRANCH  16  17
ATOM     17  CD  ARG A   2      64.744  45.813  50.251  1.00  0.00     0.116 C 
BRANCH  17  18
ATOM     18  NE  ARG A   2      65.584  46.961  49.872  1.00  0.00    -0.212 N 
ATOM     19  CZ  ARG A   2      66.433  47.035  48.835  1.00  0.00     0.666 C 
ATOM     20  NH2 ARG A   2      66.629  46.066  47.963  1.00  0.00    -0.235 N 
ATOM     21  NH1 ARG A   2      67.151  48.108  48.558  1.00  0.00    -0.235 N 
ATOM     22 1HH2 ARG A   2      67.283  46.240  47.230  1.00 99.99     0.174 HD
ATOM     23 2HH2 ARG A   2      66.150  45.190  48.028  1.00 99.99     0.174 HD
ATOM     24 1HH1 ARG A   2      67.740  48.044  47.760  1.00 99.99     0.174 HD
ATOM     25 2HH1 ARG A   2      67.125  48.950  49.099  1.00 99.99     0.174 HD
ATOM     26  HE  ARG A   2      65.503  47.745  50.488  1.00 99.99     0.178 HD
ENDBRANCH  17  18
ENDBRANCH  16  17
ENDBRANCH  15  16
ENDBRANCH  14  15
BRANCH  14  27
ATOM     27  C   ARG A   2      63.244  42.278  49.931  1.00  0.00     0.251 C 
ATOM     28  O   ARG A   2      62.782  41.370  49.222  1.00  0.00    -0.271 OA
ATOM     29  N   ILE A   3      62.986  42.390  51.218  1.00  0.00    -0.338 N 
ATOM     30  H   ILE A   3      63.248  43.213  51.743  1.00 99.99     0.164 HD
BRANCH  29  31
ATOM     31  CA  ILE A   3      62.187  41.425  52.007  1.00  0.00     0.159 C 
BRANCH  31  32
ATOM     32  CB  ILE A   3      63.038  40.819  53.150  1.00  0.00     0.029 C 
ATOM     33  CG2 ILE A   3      62.758  41.475  54.515  1.00  0.00     0.002 C 
BRANCH  32  34
ATOM     34  CG1 ILE A   3      62.944  39.281  53.162  1.00  0.00     0.002 C 
ATOM     35  CD  ILE A   3      62.611  38.651  51.807  1.00  0.00     0.000 C 
ENDBRANCH  32  34
ENDBRANCH  31  32
BRANCH  31  36
ATOM     36  C   ILE A   3      60.901  42.136  52.481  1.00  0.00     0.251 C 
ATOM     37  O   ILE A   3      60.901  43.368  52.590  1.00  0.00    -0.271 OA
ATOM     38  N   LYS A   4      59.817  41.386  52.598  1.00  0.00    -0.336 N 
ATOM     39  H   LYS A   4      59.832  40.406  52.382  1.00 99.99     0.164 HD
BRANCH  38  40
ATOM     40  CA  LYS A   4      58.504  41.904  53.057  1.00  0.00     0.168 C 
BRANCH  40  41
ATOM     41  CB  LYS A   4      57.825  42.586  51.873  1.00  0.00     0.033 C 
BRANCH  41  42
ATOM     42  CG  LYS A   4      57.664  41.681  50.649  1.00  0.00     0.004 C 
BRANCH  42  43
ATOM     43  CD  LYS A   4      56.416  42.075  49.870  1.00  0.00     0.032 C 
BRANCH  43  44
ATOM     44  CE  LYS A   4      55.299  42.448  50.842  1.00  0.00     0.206 C 
BRANCH  44  45
ATOM     45  NZ  LYS A   4      54.623  41.241  51.326  1.00  0.00    -0.064 N 
ATOM     46  HZ1 LYS A   4      53.654  41.286  51.086  1.00 99.99     0.275 HD
ATOM     47  HZ2 LYS A   4      55.039  40.439  50.895  1.00 99.99     0.275 HD
ATOM     48  HZ3 LYS A   4      54.722  41.176  52.319  1.00 99.99     0.275 HD
ENDBRANCH  44  45
ENDBRANCH  43  44
ENDBRANCH  42  43
ENDBRANCH  41  42
ENDBRANCH  40  41
BRANCH  40  49
ATOM     49  C   LYS A   4      57.602  40.769  53.645  1.00  0.00     0.206 C 
ATOM     50  O   LYS A   4      58.178  39.683  53.881  1.00  0.00    -0.646 OA
ATOM     51  OXT LYS A   4      56.414  41.022  53.866  1.00  0.00    -0.646 OA
ENDBRANCH  40  49
ENDBRANCH  38  40
ENDBRANCH  31  36
ENDBRANCH  29  31
ENDBRANCH  14  27
ENDBRANCH  12  14
ENDBRANCH   5  10
ENDBRANCH   1   5
TORSDOF 21
ENDMDL
MODEL 6
REMARK VINA RESULT:      -4.6      2.964      4.297
REMARK  21 active torsions:
REMARK  status: ('A' for Active; 'I' for Inactive)
REMARK    1  A    between atoms: N_1  and  CA_2 
REMARK    2  A    between atoms: CA_2  and  CB_5 
REMARK    3  A    between atoms: CA_2  and  C_3 
REMARK       I    between atoms: C_3  and  N_12 
REMARK    4  A    between atoms: CB_5  and  CG1_6 
REMARK    5  A    between atoms: N_12  and  CA_13 
REMARK    6  A    between atoms: CA_13  and  CB_16 
REMARK    7  A    between atoms: CA_13  and  C_14 
REMARK       I    between atoms: C_14  and  N_29 
REMARK    8  A    between atoms: CB_16  and  CG_17 
REMARK    9  A    between atoms: CG_17  and  CD_18 
REMARK   10  A    between atoms: CD_18  and  NE_19 
REMARK       I    between atoms: NE_19  and  CZ_20 
REMARK       I    between atoms: CZ_20  and  NH1_21 
REMARK   11  A    between atoms: N_29  and  CA_30 
REMARK   12  A    between atoms: CA_30  and  CB_33 
REMARK   13  A    between atoms: CA_30  and  C_31 
REMARK       I    between atoms: C_31  and  N_38 
REMARK   14  A    between atoms: CB_33  and  CG1_34 
REMARK   15  A    between atoms: N_38  and  CA_39 
REMARK   16  A    between atoms: CA_39  and  CB_42 
REMARK   17  A    between atoms: CA_39  and  C_40 
REMARK   18  A    between atoms: CB_42  and  CG_43 
REMARK   19  A    between atoms: CG_43  and  CD_44 
REMARK   20  A    between atoms: CD_44  and  CE_45 
REMARK   21  A    between atoms: CE_45  and  NZ_46 
ROOT
ATOM      1  N   ILE A   1      55.996  40.584  44.646  1.00  0.00    -0.058 N 
ATOM      2  H1  ILE A   1      55.621  39.672  44.477  1.00 99.99     0.276 HD
ATOM      3  H2  ILE A   1      55.378  41.071  45.236  1.00 99.99     0.276 HD
ATOM      4  H3  ILE A   1      56.007  41.081  43.798  1.00 99.99     0.276 HD
ENDROOT
BRANCH   1   5
ATOM      5  CA  ILE A   1      57.337  40.394  45.248  1.00  0.00     0.255 C 
BRANCH   5   6
ATOM      6  CB  ILE A   1      58.455  40.623  44.197  1.00  0.00     0.037 C 
ATOM      7  CG2 ILE A   1      58.599  39.430  43.233  1.00  0.00     0.002 C 
BRANCH   6   8
ATOM      8  CG1 ILE A   1      58.272  41.964  43.453  1.00  0.00     0.002 C 
ATOM      9  CD  ILE A   1      59.372  43.010  43.679  1.00  0.00     0.000 C 
ENDBRANCH   6   8
ENDBRANCH   5   6
BRANCH   5  10
ATOM     10  C   ILE A   1      57.425  41.326  46.485  1.00  0.00     0.259 C 
ATOM     11  O   ILE A   1      56.412  41.957  46.829  1.00  0.00    -0.271 OA
ATOM     12  N   ARG A   2      58.533  41.337  47.207  1.00  0.00    -0.338 N 
ATOM     13  H   ARG A   2      59.340  40.775  46.987  1.00 99.99     0.164 HD
BRANCH  12  14
ATOM     14  CA  ARG A   2      58.738  42.202  48.385  1.00  0.00     0.159 C 
BRANCH  14  15
ATOM     15  CB  ARG A   2      58.847  41.310  49.632  1.00  0.00     0.034 C 
BRANCH  15  16
ATOM     16  CG  ARG A   2      57.643  41.444  50.570  1.00  0.00     0.027 C 
BRANCH  16  17
ATOM     17  CD  ARG A   2      56.502  40.533  50.121  1.00  0.00     0.116 C 
BRANCH  17  18
ATOM     18  NE  ARG A   2      55.424  41.358  49.550  1.00  0.00    -0.212 N 
ATOM     19  CZ  ARG A   2      54.146  41.412  49.954  1.00  0.00     0.666 C 
ATOM     20  NH2 ARG A   2      53.657  40.727  50.968  1.00  0.00    -0.235 N 
ATOM     21  NH1 ARG A   2      53.237  42.185  49.389  1.00  0.00    -0.235 N 
ATOM     22 1HH2 ARG A   2      52.690  40.854  51.177  1.00 99.99     0.174 HD
ATOM     23 2HH2 ARG A   2      54.222  40.103  51.508  1.00 99.99     0.174 HD
ATOM     24 1HH1 ARG A   2      52.324  42.142  49.781  1.00 99.99     0.174 HD
ATOM     25 2HH1 ARG A   2      53.424  42.789  48.613  1.00 99.99     0.174 HD
ATOM     26  HE  ARG A   2      55.707  41.909  48.764  1.00 99.99     0.178 HD
ENDBRANCH  17  18
ENDBRANCH  16  17
ENDBRANCH  15  16
ENDBRANCH  14  15
BRANCH  14  27
ATOM     27  C   ARG A   2      60.030  43.004  48.152  1.00  0.00     0.251 C 
ATOM     28  O   ARG A   2      60.186  43.602  47.075  1.00  0.00    -0.271 OA
ATOM     29  N   ILE A   3      60.927  43.008  49.116  1.00  0.00    -0.338 N 
ATOM     30  H   ILE A   3      60.848  42.400  49.919  1.00 99.99     0.164 HD
BRANCH  29  31
ATOM     31  CA  ILE A   3      62.194  43.774  49.088  1.00  0.00     0.159 C 
BRANCH  31  32
ATOM     32  CB  ILE A   3      62.693  44.055  50.527  1.00  0.00     0.029 C 
ATOM     33  CG2 ILE A   3      62.913  45.555  50.800  1.00  0.00     0.002 C 
BRANCH  32  34
ATOM     34  CG1 ILE A   3      61.809  43.350  51.573  1.00  0.00     0.002 C 
ATOM     35  CD  ILE A   3      62.503  42.220  52.339  1.00  0.00     0.000 C 
ENDBRANCH  32  34
ENDBRANCH  31  32
BRANCH  31  36
ATOM     36  C   ILE A   3      63.202  43.010  48.203  1.00  0.00     0.251 C 
ATOM     37  O   ILE A   3      63.725  41.978  48.642  1.00  0.00    -0.271 OA
ATOM     38  N   LYS A   4      63.332  43.427  46.954  1.00  0.00    -0.336 N 
ATOM     39  H   LYS A   4      62.795  44.199  46.601  1.00 99.99     0.164 HD
BRANCH  38  40
ATOM     40  CA  LYS A   4      64.267  42.818  45.976  1.00  0.00     0.168 C 
BRANCH  40  41
ATOM     41  CB  LYS A   4      63.617  42.884  44.596  1.00  0.00     0.033 C 
BRANCH  41  42
ATOM     42  CG  LYS A   4      62.854  41.614  44.214  1.00  0.00     0.004 C 
BRANCH  42  43
ATOM     43  CD  LYS A   4      63.025  40.557  45.296  1.00  0.00     0.032 C 
BRANCH  43  44
ATOM     44  CE  LYS A   4      61.665  40.205  45.892  1.00  0.00     0.206 C 
BRANCH  44  45
ATOM     45  NZ  LYS A   4      61.805  39.875  47.314  1.00  0.00    -0.064 N 
ATOM     46  HZ1 LYS A   4      62.666  39.387  47.457  1.00 99.99     0.275 HD
ATOM     47  HZ2 LYS A   4      61.806  40.722  47.846  1.00 99.99     0.275 HD
ATOM     48  HZ3 LYS A   4      61.039  39.300  47.602  1.00 99.99     0.275 HD
ENDBRANCH  44  45
ENDBRANCH  43  44
ENDBRANCH  42  43
ENDBRANCH  41  42
ENDBRANCH  40  41
BRANCH  40  49
ATOM     49  C   LYS A   4      65.659  43.532  45.975  1.00  0.00     0.206 C 
ATOM     50  O   LYS A   4      66.651  42.792  45.788  1.00  0.00    -0.646 OA
ATOM     51  OXT LYS A   4      65.688  44.757  46.121  1.00  0.00    -0.646 OA
ENDBRANCH  40  49
ENDBRANCH  38  40
ENDBRANCH  31  36
ENDBRANCH  29  31
ENDBRANCH  14  27
ENDBRANCH  12  14
ENDBRANCH   5  10
ENDBRANCH   1   5
TORSDOF 21
ENDMDL
MODEL 7
REMARK VINA RESULT:      -4.6      2.732      9.262
REMARK  21 active torsions:
REMARK  status: ('A' for Active; 'I' for Inactive)
REMARK    1  A    between atoms: N_1  and  CA_2 
REMARK    2  A    between atoms: CA_2  and  CB_5 
REMARK    3  A    between atoms: CA_2  and  C_3 
REMARK       I    between atoms: C_3  and  N_12 
REMARK    4  A    between atoms: CB_5  and  CG1_6 
REMARK    5  A    between atoms: N_12  and  CA_13 
REMARK    6  A    between atoms: CA_13  and  CB_16 
REMARK    7  A    between atoms: CA_13  and  C_14 
REMARK       I    between atoms: C_14  and  N_29 
REMARK    8  A    between atoms: CB_16  and  CG_17 
REMARK    9  A    between atoms: CG_17  and  CD_18 
REMARK   10  A    between atoms: CD_18  and  NE_19 
REMARK       I    between atoms: NE_19  and  CZ_20 
REMARK       I    between atoms: CZ_20  and  NH1_21 
REMARK   11  A    between atoms: N_29  and  CA_30 
REMARK   12  A    between atoms: CA_30  and  CB_33 
REMARK   13  A    between atoms: CA_30  and  C_31 
REMARK       I    between atoms: C_31  and  N_38 
REMARK   14  A    between atoms: CB_33  and  CG1_34 
REMARK   15  A    between atoms: N_38  and  CA_39 
REMARK   16  A    between atoms: CA_39  and  CB_42 
REMARK   17  A    between atoms: CA_39  and  C_40 
REMARK   18  A    between atoms: CB_42  and  CG_43 
REMARK   19  A    between atoms: CG_43  and  CD_44 
REMARK   20  A    between atoms: CD_44  and  CE_45 
REMARK   21  A    between atoms: CE_45  and  NZ_46 
ROOT
ATOM      1  N   ILE A   1      66.146  43.780  49.294  1.00  0.00    -0.058 N 
ATOM      2  H1  ILE A   1      66.713  44.512  49.674  1.00 99.99     0.276 HD
ATOM      3  H2  ILE A   1      66.073  43.063  49.962  1.00 99.99     0.276 HD
ATOM      4  H3  ILE A   1      66.616  43.386  48.525  1.00 99.99     0.276 HD
ENDROOT
BRANCH   1   5
ATOM      5  CA  ILE A   1      64.837  44.386  48.951  1.00  0.00     0.255 C 
BRANCH   5   6
ATOM      6  CB  ILE A   1      64.799  45.886  49.344  1.00  0.00     0.037 C 
ATOM      7  CG2 ILE A   1      63.652  46.200  50.323  1.00  0.00     0.002 C 
BRANCH   6   8
ATOM      8  CG1 ILE A   1      66.168  46.375  49.863  1.00  0.00     0.002 C 
ATOM      9  CD  ILE A   1      66.805  47.532  49.082  1.00  0.00     0.000 C 
ENDBRANCH   6   8
ENDBRANCH   5   6
BRANCH   5  10
ATOM     10  C   ILE A   1      64.585  44.115  47.444  1.00  0.00     0.259 C 
ATOM     11  O   ILE A   1      65.314  44.671  46.607  1.00  0.00    -0.271 OA
ATOM     12  N   ARG A   2      63.681  43.215  47.093  1.00  0.00    -0.338 N 
ATOM     13  H   ARG A   2      63.131  42.697  47.760  1.00 99.99     0.164 HD
BRANCH  12  14
ATOM     14  CA  ARG A   2      63.339  42.895  45.693  1.00  0.00     0.159 C 
BRANCH  14  15
ATOM     15  CB  ARG A   2      63.895  41.502  45.361  1.00  0.00     0.034 C 
BRANCH  15  16
ATOM     16  CG  ARG A   2      64.628  40.853  46.540  1.00  0.00     0.027 C 
BRANCH  16  17
ATOM     17  CD  ARG A   2      66.081  40.554  46.176  1.00  0.00     0.116 C 
BRANCH  17  18
ATOM     18  NE  ARG A   2      66.865  41.796  46.268  1.00  0.00    -0.212 N 
ATOM     19  CZ  ARG A   2      67.428  42.474  45.255  1.00  0.00     0.666 C 
ATOM     20  NH2 ARG A   2      67.340  42.126  43.987  1.00  0.00    -0.235 N 
ATOM     21  NH1 ARG A   2      68.116  43.589  45.420  1.00  0.00    -0.235 N 
ATOM     22 1HH2 ARG A   2      67.797  42.714  43.322  1.00 99.99     0.174 HD
ATOM     23 2HH2 ARG A   2      66.841  41.310  43.695  1.00 99.99     0.174 HD
ATOM     24 1HH1 ARG A   2      68.480  44.003  44.592  1.00 99.99     0.174 HD
ATOM     25 2HH1 ARG A   2      68.278  44.017  46.310  1.00 99.99     0.174 HD
ATOM     26  HE  ARG A   2      66.990  42.131  47.202  1.00 99.99     0.178 HD
ENDBRANCH  17  18
ENDBRANCH  16  17
ENDBRANCH  15  16
ENDBRANCH  14  15
BRANCH  14  27
ATOM     27  C   ARG A   2      61.806  42.935  45.570  1.00  0.00     0.251 C 
ATOM     28  O   ARG A   2      61.293  43.284  44.495  1.00  0.00    -0.271 OA
ATOM     29  N   ILE A   3      61.101  42.604  46.632  1.00  0.00    -0.338 N 
ATOM     30  H   ILE A   3      61.533  42.467  47.536  1.00 99.99     0.164 HD
BRANCH  29  31
ATOM     31  CA  ILE A   3      59.623  42.525  46.675  1.00  0.00     0.159 C 
BRANCH  31  32
ATOM     32  CB  ILE A   3      59.132  41.177  46.093  1.00  0.00     0.029 C 
ATOM     33  CG2 ILE A   3      59.053  40.063  47.153  1.00  0.00     0.002 C 
BRANCH  32  34
ATOM     34  CG1 ILE A   3      57.837  41.359  45.277  1.00  0.00     0.002 C 
ATOM     35  CD  ILE A   3      58.044  41.926  43.870  1.00  0.00     0.000 C 
ENDBRANCH  32  34
ENDBRANCH  31  32
BRANCH  31  36
ATOM     36  C   ILE A   3      59.167  42.796  48.125  1.00  0.00     0.251 C 
ATOM     37  O   ILE A   3      58.056  43.305  48.320  1.00  0.00    -0.271 OA
ATOM     38  N   LYS A   4      59.940  42.324  49.089  1.00  0.00    -0.336 N 
ATOM     39  H   LYS A   4      60.777  41.808  48.884  1.00 99.99     0.164 HD
BRANCH  38  40
ATOM     40  CA  LYS A   4      59.659  42.510  50.534  1.00  0.00     0.168 C 
BRANCH  40  41
ATOM     41  CB  LYS A   4      58.775  41.354  50.997  1.00  0.00     0.033 C 
BRANCH  41  42
ATOM     42  CG  LYS A   4      57.402  41.795  51.507  1.00  0.00     0.004 C 
BRANCH  42  43
ATOM     43  CD  LYS A   4      56.316  41.338  50.542  1.00  0.00     0.032 C 
BRANCH  43  44
ATOM     44  CE  LYS A   4      55.118  42.280  50.630  1.00  0.00     0.206 C 
BRANCH  44  45
ATOM     45  NZ  LYS A   4      55.388  43.515  49.888  1.00  0.00    -0.064 N 
ATOM     46  HZ1 LYS A   4      56.291  43.862  50.141  1.00 99.99     0.275 HD
ATOM     47  HZ2 LYS A   4      55.367  43.318  48.907  1.00 99.99     0.275 HD
ATOM     48  HZ3 LYS A   4      54.691  44.198  50.106  1.00 99.99     0.275 HD
ENDBRANCH  44  45
ENDBRANCH  43  44
ENDBRANCH  42  43
ENDBRANCH  41  42
ENDBRANCH  40  41
BRANCH  40  49
ATOM     49  C   LYS A   4      60.974  42.584  51.380  1.00  0.00     0.206 C 
ATOM     50  O   LYS A   4      61.908  41.843  50.999  1.00  0.00    -0.646 OA
ATOM     51  OXT LYS A   4      61.017  43.377  52.324  1.00  0.00    -0.646 OA
ENDBRANCH  40  49
ENDBRANCH  38  40
ENDBRANCH  31  36
ENDBRANCH  29  31
ENDBRANCH  14  27
ENDBRANCH  12  14
ENDBRANCH   5  10
ENDBRANCH   1   5
TORSDOF 21
ENDMDL
MODEL 8
REMARK VINA RESULT:      -4.6      2.790      8.301
REMARK  21 active torsions:
REMARK  status: ('A' for Active; 'I' for Inactive)
REMARK    1  A    between atoms: N_1  and  CA_2 
REMARK    2  A    between atoms: CA_2  and  CB_5 
REMARK    3  A    between atoms: CA_2  and  C_3 
REMARK       I    between atoms: C_3  and  N_12 
REMARK    4  A    between atoms: CB_5  and  CG1_6 
REMARK    5  A    between atoms: N_12  and  CA_13 
REMARK    6  A    between atoms: CA_13  and  CB_16 
REMARK    7  A    between atoms: CA_13  and  C_14 
REMARK       I    between atoms: C_14  and  N_29 
REMARK    8  A    between atoms: CB_16  and  CG_17 
REMARK    9  A    between atoms: CG_17  and  CD_18 
REMARK   10  A    between atoms: CD_18  and  NE_19 
REMARK       I    between atoms: NE_19  and  CZ_20 
REMARK       I    between atoms: CZ_20  and  NH1_21 
REMARK   11  A    between atoms: N_29  and  CA_30 
REMARK   12  A    between atoms: CA_30  and  CB_33 
REMARK   13  A    between atoms: CA_30  and  C_31 
REMARK       I    between atoms: C_31  and  N_38 
REMARK   14  A    between atoms: CB_33  and  CG1_34 
REMARK   15  A    between atoms: N_38  and  CA_39 
REMARK   16  A    between atoms: CA_39  and  CB_42 
REMARK   17  A    between atoms: CA_39  and  C_40 
REMARK   18  A    between atoms: CB_42  and  CG_43 
REMARK   19  A    between atoms: CG_43  and  CD_44 
REMARK   20  A    between atoms: CD_44  and  CE_45 
REMARK   21  A    between atoms: CE_45  and  NZ_46 
ROOT
ATOM      1  N   ILE A   1      63.450  42.405  48.628  1.00  0.00    -0.058 N 
ATOM      2  H1  ILE A   1      63.298  41.477  48.287  1.00 99.99     0.276 HD
ATOM      3  H2  ILE A   1      63.707  42.977  47.871  1.00 99.99     0.276 HD
ATOM      4  H3  ILE A   1      64.225  42.395  49.233  1.00 99.99     0.276 HD
ENDROOT
BRANCH   1   5
ATOM      5  CA  ILE A   1      62.189  42.837  49.276  1.00  0.00     0.255 C 
BRANCH   5   6
ATOM      6  CB  ILE A   1      62.440  44.017  50.251  1.00  0.00     0.037 C 
ATOM      7  CG2 ILE A   1      62.319  43.588  51.725  1.00  0.00     0.002 C 
BRANCH   6   8
ATOM      8  CG1 ILE A   1      63.778  44.729  49.952  1.00  0.00     0.002 C 
ATOM      9  CD  ILE A   1      63.670  46.088  49.248  1.00  0.00     0.000 C 
ENDBRANCH   6   8
ENDBRANCH   5   6
BRANCH   5  10
ATOM     10  C   ILE A   1      61.173  43.151  48.145  1.00  0.00     0.259 C 
ATOM     11  O   ILE A   1      61.604  43.540  47.047  1.00  0.00    -0.271 OA
ATOM     12  N   ARG A   2      59.891  42.886  48.337  1.00  0.00    -0.338 N 
ATOM     13  H   ARG A   2      59.532  42.498  49.195  1.00 99.99     0.164 HD
BRANCH  12  14
ATOM     14  CA  ARG A   2      58.836  43.167  47.345  1.00  0.00     0.159 C 
BRANCH  14  15
ATOM     15  CB  ARG A   2      58.698  41.947  46.421  1.00  0.00     0.034 C 
BRANCH  15  16
ATOM     16  CG  ARG A   2      58.140  42.303  45.039  1.00  0.00     0.027 C 
BRANCH  16  17
ATOM     17  CD  ARG A   2      58.868  43.512  44.456  1.00  0.00     0.116 C 
BRANCH  17  18
ATOM     18  NE  ARG A   2      60.011  43.045  43.654  1.00  0.00    -0.212 N 
ATOM     19  CZ  ARG A   2      60.101  43.013  42.316  1.00  0.00     0.666 C 
ATOM     20  NH2 ARG A   2      59.156  43.428  41.497  1.00  0.00    -0.235 N 
ATOM     21  NH1 ARG A   2      61.168  42.582  41.669  1.00  0.00    -0.235 N 
ATOM     22 1HH2 ARG A   2      59.340  43.359  40.519  1.00 99.99     0.174 HD
ATOM     23 2HH2 ARG A   2      58.288  43.796  41.832  1.00 99.99     0.174 HD
ATOM     24 1HH1 ARG A   2      61.118  42.612  40.676  1.00 99.99     0.174 HD
ATOM     25 2HH1 ARG A   2      61.993  42.240  42.121  1.00 99.99     0.174 HD
ATOM     26  HE  ARG A   2      60.777  42.702  44.199  1.00 99.99     0.178 HD
ENDBRANCH  17  18
ENDBRANCH  16  17
ENDBRANCH  15  16
ENDBRANCH  14  15
BRANCH  14  27
ATOM     27  C   ARG A   2      57.534  43.439  48.118  1.00  0.00     0.251 C 
ATOM     28  O   ARG A   2      56.958  44.529  47.972  1.00  0.00    -0.271 OA
ATOM     29  N   ILE A   3      57.093  42.492  48.921  1.00  0.00    -0.338 N 
ATOM     30  H   ILE A   3      57.650  41.677  49.138  1.00 99.99     0.164 HD
BRANCH  29  31
ATOM     31  CA  ILE A   3      55.830  42.557  49.690  1.00  0.00     0.159 C 
BRANCH  31  32
ATOM     32  CB  ILE A   3      54.935  41.333  49.375  1.00  0.00     0.029 C 
ATOM     33  CG2 ILE A   3      53.436  41.624  49.572  1.00  0.00     0.002 C 
BRANCH  32  34
ATOM     34  CG1 ILE A   3      55.282  40.726  48.001  1.00  0.00     0.002 C 
ATOM     35  CD  ILE A   3      55.736  39.265  48.045  1.00  0.00     0.000 C 
ENDBRANCH  32  34
ENDBRANCH  31  32
BRANCH  31  36
ATOM     36  C   ILE A   3      56.182  42.719  51.185  1.00  0.00     0.251 C 
ATOM     37  O   ILE A   3      55.839  43.751  51.775  1.00  0.00    -0.271 OA
ATOM     38  N   LYS A   4      56.706  41.665  51.789  1.00  0.00    -0.336 N 
ATOM     39  H   LYS A   4      56.858  40.801  51.299  1.00 99.99     0.164 HD
BRANCH  38  40
ATOM     40  CA  LYS A   4      57.119  41.654  53.214  1.00  0.00     0.168 C 
BRANCH  40  41
ATOM     41  CB  LYS A   4      56.771  40.287  53.797  1.00  0.00     0.033 C 
BRANCH  41  42
ATOM     42  CG  LYS A   4      55.455  40.265  54.577  1.00  0.00     0.004 C 
BRANCH  42  43
ATOM     43  CD  LYS A   4      55.714  40.582  56.044  1.00  0.00     0.032 C 
BRANCH  43  44
ATOM     44  CE  LYS A   4      56.916  39.782  56.540  1.00  0.00     0.206 C 
BRANCH  44  45
ATOM     45  NZ  LYS A   4      57.878  40.668  57.201  1.00  0.00    -0.064 N 
ATOM     46  HZ1 LYS A   4      57.390  41.275  57.829  1.00 99.99     0.275 HD
ATOM     47  HZ2 LYS A   4      58.535  40.113  57.712  1.00 99.99     0.275 HD
ATOM     48  HZ3 LYS A   4      58.361  41.212  56.514  1.00 99.99     0.275 HD
ENDBRANCH  44  45
ENDBRANCH  43  44
ENDBRANCH  42  43
ENDBRANCH  41  42
ENDBRANCH  40  41
BRANCH  40  49
ATOM     49  C   LYS A   4      58.642  41.966  53.384  1.00  0.00     0.206 C 
ATOM     50  O   LYS A   4      58.975  43.162  53.220  1.00  0.00    -0.646 OA
ATOM     51  OXT LYS A   4      59.398  41.042  53.696  1.00  0.00    -0.646 OA
ENDBRANCH  40  49
ENDBRANCH  38  40
ENDBRANCH  31  36
ENDBRANCH  29  31
ENDBRANCH  14  27
ENDBRANCH  12  14
ENDBRANCH   5  10
ENDBRANCH   1   5
TORSDOF 21
ENDMDL
MODEL 9
REMARK VINA RESULT:      -4.5      2.152      4.999
REMARK  21 active torsions:
REMARK  status: ('A' for Active; 'I' for Inactive)
REMARK    1  A    between atoms: N_1  and  CA_2 
REMARK    2  A    between atoms: CA_2  and  CB_5 
REMARK    3  A    between atoms: CA_2  and  C_3 
REMARK       I    between atoms: C_3  and  N_12 
REMARK    4  A    between atoms: CB_5  and  CG1_6 
REMARK    5  A    between atoms: N_12  and  CA_13 
REMARK    6  A    between atoms: CA_13  and  CB_16 
REMARK    7  A    between atoms: CA_13  and  C_14 
REMARK       I    between atoms: C_14  and  N_29 
REMARK    8  A    between atoms: CB_16  and  CG_17 
REMARK    9  A    between atoms: CG_17  and  CD_18 
REMARK   10  A    between atoms: CD_18  and  NE_19 
REMARK       I    between atoms: NE_19  and  CZ_20 
REMARK       I    between atoms: CZ_20  and  NH1_21 
REMARK   11  A    between atoms: N_29  and  CA_30 
REMARK   12  A    between atoms: CA_30  and  CB_33 
REMARK   13  A    between atoms: CA_30  and  C_31 
REMARK       I    between atoms: C_31  and  N_38 
REMARK   14  A    between atoms: CB_33  and  CG1_34 
REMARK   15  A    between atoms: N_38  and  CA_39 
REMARK   16  A    between atoms: CA_39  and  CB_42 
REMARK   17  A    between atoms: CA_39  and  C_40 
REMARK   18  A    between atoms: CB_42  and  CG_43 
REMARK   19  A    between atoms: CG_43  and  CD_44 
REMARK   20  A    between atoms: CD_44  and  CE_45 
REMARK   21  A    between atoms: CE_45  and  NZ_46 
ROOT
ATOM      1  N   ILE A   1      53.464  40.649  48.332  1.00  0.00    -0.058 N 
ATOM      2  H1  ILE A   1      53.597  41.593  48.637  1.00 99.99     0.276 HD
ATOM      3  H2  ILE A   1      53.084  40.664  47.426  1.00 99.99     0.276 HD
ATOM      4  H3  ILE A   1      52.783  40.228  48.903  1.00 99.99     0.276 HD
ENDROOT
BRANCH   1   5
ATOM      5  CA  ILE A   1      54.789  39.988  48.391  1.00  0.00     0.255 C 
BRANCH   5   6
ATOM      6  CB  ILE A   1      55.124  39.293  47.044  1.00  0.00     0.037 C 
ATOM      7  CG2 ILE A   1      54.808  40.191  45.833  1.00  0.00     0.002 C 
BRANCH   6   8
ATOM      8  CG1 ILE A   1      56.573  38.761  47.022  1.00  0.00     0.002 C 
ATOM      9  CD  ILE A   1      57.516  39.429  46.012  1.00  0.00     0.000 C 
ENDBRANCH   6   8
ENDBRANCH   5   6
BRANCH   5  10
ATOM     10  C   ILE A   1      55.821  41.062  48.826  1.00  0.00     0.259 C 
ATOM     11  O   ILE A   1      55.601  42.251  48.544  1.00  0.00    -0.271 OA
ATOM     12  N   ARG A   2      56.845  40.702  49.583  1.00  0.00    -0.338 N 
ATOM     13  H   ARG A   2      57.001  39.754  49.886  1.00 99.99     0.164 HD
BRANCH  12  14
ATOM     14  CA  ARG A   2      57.900  41.631  50.034  1.00  0.00     0.159 C 
BRANCH  14  15
ATOM     15  CB  ARG A   2      58.117  41.429  51.542  1.00  0.00     0.034 C 
BRANCH  15  16
ATOM     16  CG  ARG A   2      59.172  42.374  52.127  1.00  0.00     0.027 C 
BRANCH  16  17
ATOM     17  CD  ARG A   2      60.069  41.636  53.118  1.00  0.00     0.116 C 
BRANCH  17  18
ATOM     18  NE  ARG A   2      61.475  41.815  52.720  1.00  0.00    -0.212 N 
ATOM     19  CZ  ARG A   2      62.200  41.008  51.930  1.00  0.00     0.666 C 
ATOM     20  NH2 ARG A   2      61.739  39.914  51.359  1.00  0.00    -0.235 N 
ATOM     21  NH1 ARG A   2      63.461  41.242  51.614  1.00  0.00    -0.235 N 
ATOM     22 1HH2 ARG A   2      62.373  39.398  50.787  1.00 99.99     0.174 HD
ATOM     23 2HH2 ARG A   2      60.796  39.605  51.490  1.00 99.99     0.174 HD
ATOM     24 1HH1 ARG A   2      63.891  40.575  51.015  1.00 99.99     0.174 HD
ATOM     25 2HH1 ARG A   2      63.979  42.034  51.940  1.00 99.99     0.174 HD
ATOM     26  HE  ARG A   2      61.910  42.623  53.117  1.00 99.99     0.178 HD
ENDBRANCH  17  18
ENDBRANCH  16  17
ENDBRANCH  15  16
ENDBRANCH  14  15
BRANCH  14  27
ATOM     27  C   ARG A   2      59.173  41.309  49.233  1.00  0.00     0.251 C 
ATOM     28  O   ARG A   2      59.622  40.152  49.246  1.00  0.00    -0.271 OA
ATOM     29  N   ILE A   3      59.743  42.295  48.572  1.00  0.00    -0.338 N 
ATOM     30  H   ILE A   3      59.451  43.255  48.692  1.00 99.99     0.164 HD
BRANCH  29  31
ATOM     31  CA  ILE A   3      60.933  42.153  47.702  1.00  0.00     0.159 C 
BRANCH  31  32
ATOM     32  CB  ILE A   3      60.747  42.952  46.388  1.00  0.00     0.029 C 
ATOM     33  CG2 ILE A   3      61.942  42.807  45.428  1.00  0.00     0.002 C 
BRANCH  32  34
ATOM     34  CG1 ILE A   3      59.381  42.652  45.741  1.00  0.00     0.002 C 
ATOM     35  CD  ILE A   3      58.694  43.866  45.108  1.00  0.00     0.000 C 
ENDBRANCH  32  34
ENDBRANCH  31  32
BRANCH  31  36
ATOM     36  C   ILE A   3      62.180  42.555  48.520  1.00  0.00     0.251 C 
ATOM     37  O   ILE A   3      63.128  41.765  48.597  1.00  0.00    -0.271 OA
ATOM     38  N   LYS A   4      62.220  43.800  48.969  1.00  0.00    -0.336 N 
ATOM     39  H   LYS A   4      61.478  44.450  48.778  1.00 99.99     0.164 HD
BRANCH  38  40
ATOM     40  CA  LYS A   4      63.333  44.345  49.784  1.00  0.00     0.168 C 
BRANCH  40  41
ATOM     41  CB  LYS A   4      64.192  45.227  48.882  1.00  0.00     0.033 C 
BRANCH  41  42
ATOM     42  CG  LYS A   4      65.671  44.834  48.864  1.00  0.00     0.004 C 
BRANCH  42  43
ATOM     43  CD  LYS A   4      66.196  44.846  47.435  1.00  0.00     0.032 C 
BRANCH  43  44
ATOM     44  CE  LYS A   4      65.263  44.038  46.537  1.00  0.00     0.206 C 
BRANCH  44  45
ATOM     45  NZ  LYS A   4      65.455  42.603  46.768  1.00  0.00    -0.064 N 
ATOM     46  HZ1 LYS A   4      66.170  42.263  46.158  1.00 99.99     0.275 HD
ATOM     47  HZ2 LYS A   4      65.728  42.459  47.719  1.00 99.99     0.275 HD
ATOM     48  HZ3 LYS A   4      64.599  42.117  46.588  1.00 99.99     0.275 HD
ENDBRANCH  44  45
ENDBRANCH  43  44
ENDBRANCH  42  43
ENDBRANCH  41  42
ENDBRANCH  40  41
BRANCH  40  49
ATOM     49  C   LYS A   4      62.812  45.147  51.022  1.00  0.00     0.206 C 
ATOM     50  O   LYS A   4      63.147  46.352  51.070  1.00  0.00    -0.646 OA
ATOM     51  OXT LYS A   4      62.091  44.563  51.836  1.00  0.00    -0.646 OA
ENDBRANCH  40  49
ENDBRANCH  38  40
ENDBRANCH  31  36
ENDBRANCH  29  31
ENDBRANCH  14  27
ENDBRANCH  12  14
ENDBRANCH   5  10
ENDBRANCH   1   5
TORSDOF 21
ENDMDL
