MODEL 1
REMARK VINA RESULT:      -4.8      0.000      0.000
REMARK WARNING: 32 MAX_TORS EXCEEDED!!!
REMARK  33 active torsions:
REMARK  status: ('A' for Active; 'I' for Inactive)
REMARK    1  A    between atoms: N_1  and  CA_2 
REMARK    2  A    between atoms: CA_2  and  C_3 
REMARK       I    between atoms: C_3  and  N_9 
REMARK    3  A    between atoms: N_9  and  CA_10 
REMARK    4  A    between atoms: CA_10  and  C_11 
REMARK    5  A    between atoms: CA_10  and  CB_13 
REMARK       I    between atoms: C_11  and  N_21 
REMARK    6  A    between atoms: CB_13  and  CG_14 
REMARK    7  A    between atoms: N_21  and  CA_22 
REMARK    8  A    between atoms: CA_22  and  C_23 
REMARK       I    between atoms: C_23  and  N_27 
REMARK    9  A    between atoms: N_27  and  CA_28 
REMARK   10  A    between atoms: CA_28  and  C_29 
REMARK   11  A    between atoms: CA_28  and  CB_31 
REMARK       I    between atoms: C_29  and  N_36 
REMARK   12  A    between atoms: CB_31  and  CG_32 
REMARK   13  A    between atoms: N_36  and  CA_37 
REMARK   14  A    between atoms: CA_37  and  C_38 
REMARK   15  A    between atoms: CA_37  and  CB_40 
REMARK       I    between atoms: C_38  and  N_49 
REMARK   16  A    between atoms: CB_40  and  CG_41 
REMARK   17  A    between atoms: CG_41  and  CD_42 
REMARK   18  A    between atoms: CD_42  and  CE_43 
REMARK   19  A    between atoms: CE_43  and  NZ_44 
REMARK   20  A    between atoms: N_49  and  CA_50 
REMARK   21  A    between atoms: CA_50  and  CB_53 
REMARK   22  A    between atoms: CA_50  and  C_51 
REMARK       I    between atoms: C_51  and  N_62 
REMARK   23  A    between atoms: CB_53  and  CG_54 
REMARK   24  A    between atoms: CG_54  and  CD_55 
REMARK   25  A    between atoms: CD_55  and  CE_56 
REMARK   26  A    between atoms: CE_56  and  NZ_57 
REMARK   27  A    between atoms: N_62  and  CA_63 
REMARK   28  A    between atoms: CA_63  and  C_64 
REMARK   29  A    between atoms: CA_63  and  CB_66 
REMARK   30  A    between atoms: CB_66  and  CG_67 
REMARK   31  A    between atoms: CG_67  and  CD_68 
REMARK   32  A    between atoms: CD_68  and  CE_69 
REMARK   33  A    between atoms: CE_69  and  NZ_70 
ROOT
ATOM      1  N   ALA     1      55.624  40.201  56.164  1.00  0.00    -0.058 N 
ATOM      2  H1  ALA     1      55.248  41.075  55.862  1.00 99.99     0.276 HD
ATOM      3  H2  ALA     1      55.013  39.769  56.808  1.00 99.99     0.276 HD
ATOM      4  H3  ALA     1      56.458  40.370  56.682  1.00 99.99     0.276 HD
ENDROOT
BRANCH   1   5
ATOM      5  CA  ALA     1      55.882  39.338  54.986  1.00  0.00     0.255 C 
ATOM      6  CB  ALA     1      54.569  39.029  54.245  1.00  0.00     0.042 C 
BRANCH   5   7
ATOM      7  C   ALA     1      56.999  39.876  54.054  1.00  0.00     0.259 C 
ATOM      8  N   PHE     2      56.794  41.033  53.409  1.00  0.00    -0.337 N 
ATOM      9  H   PHE     2      55.938  41.541  53.501  1.00 99.99     0.164 HD
ATOM     10  O   ALA     1      58.126  39.399  54.174  1.00  0.00    -0.271 OA
BRANCH   8  11
ATOM     11  CA  PHE     2      57.718  41.597  52.394  1.00  0.00     0.164 C 
BRANCH  11  12
ATOM     12  C   PHE     2      59.012  42.248  52.926  1.00  0.00     0.251 C 
ATOM     13  O   PHE     2      58.945  43.349  53.465  1.00  0.00    -0.271 OA
ATOM     14  N   ALA     3      60.169  41.628  52.665  1.00  0.00    -0.338 N 
ATOM     15  H   ALA     3      60.187  40.690  52.334  1.00 99.99     0.164 HD
BRANCH  14  16
ATOM     16  CA  ALA     3      61.500  42.187  53.000  1.00  0.00     0.159 C 
ATOM     17  CB  ALA     3      62.526  41.048  53.066  1.00  0.00     0.034 C 
BRANCH  16  18
ATOM     18  C   ALA     3      61.947  43.294  52.020  1.00  0.00     0.251 C 
ATOM     19  O   ALA     3      61.786  44.468  52.340  1.00  0.00    -0.271 OA
ATOM     20  N   LEU     4      62.181  42.895  50.769  1.00  0.00    -0.338 N 
ATOM     21  H   LEU     4      62.183  41.922  50.553  1.00 99.99     0.164 HD
BRANCH  20  22
ATOM     22  CA  LEU     4      62.556  43.734  49.606  1.00  0.00     0.159 C 
BRANCH  22  23
ATOM     23  C   LEU     4      62.410  43.107  48.201  1.00  0.00     0.251 C 
ATOM     24  N   LYS     5      63.425  42.359  47.773  1.00  0.00    -0.338 N 
ATOM     25  H   LYS     5      64.282  42.304  48.286  1.00 99.99     0.164 HD
ATOM     26  O   LEU     4      61.477  43.443  47.475  1.00  0.00    -0.271 OA
BRANCH  24  27
ATOM     27  CA  LYS     5      63.426  41.601  46.504  1.00  0.00     0.159 C 
BRANCH  27  28
ATOM     28  C   LYS     5      62.661  42.272  45.342  1.00  0.00     0.251 C 
ATOM     29  O   LYS     5      63.241  43.046  44.583  1.00  0.00    -0.271 OA
ATOM     30  N   LYS     6      61.405  41.869  45.149  1.00  0.00    -0.338 N 
ATOM     31  H   LYS     6      61.012  41.147  45.720  1.00 99.99     0.164 HD
BRANCH  30  32
ATOM     32  CA  LYS     6      60.528  42.345  44.054  1.00  0.00     0.159 C 
BRANCH  32  33
ATOM     33  CB  LYS     6      60.658  41.353  42.891  1.00  0.00     0.032 C 
BRANCH  33  34
ATOM     34  CG  LYS     6      60.852  42.081  41.559  1.00  0.00     0.004 C 
BRANCH  34  35
ATOM     35  CD  LYS     6      59.985  41.511  40.438  1.00  0.00     0.032 C 
BRANCH  35  36
ATOM     36  CE  LYS     6      58.820  42.470  40.192  1.00  0.00     0.206 C 
BRANCH  36  37
ATOM     37  NZ  LYS     6      59.009  43.753  40.881  1.00  0.00    -0.064 N 
ATOM     38  HZ1 LYS     6      59.988  43.909  41.011  1.00 99.99     0.275 HD
ATOM     39  HZ2 LYS     6      58.624  44.485  40.322  1.00 99.99     0.275 HD
ATOM     40  HZ3 LYS     6      58.553  43.724  41.770  1.00 99.99     0.275 HD
ENDBRANCH  36  37
ENDBRANCH  35  36
ENDBRANCH  34  35
ENDBRANCH  33  34
ENDBRANCH  32  33
BRANCH  32  41
ATOM     41  C   LYS     6      59.046  42.516  44.468  1.00  0.00     0.251 C 
ATOM     42  N   LYS     7      58.824  42.523  45.780  1.00  0.00    -0.336 N 
ATOM     43  H   LYS     7      59.585  42.418  46.423  1.00 99.99     0.164 HD
ATOM     44  O   LYS     6      58.141  42.455  43.639  1.00  0.00    -0.271 OA
BRANCH  42  45
ATOM     45  CA  LYS     7      57.517  42.719  46.446  1.00  0.00     0.168 C 
BRANCH  45  46
ATOM     46  C   LYS     7      57.755  43.462  47.770  1.00  0.00     0.206 C 
ATOM     47  O   LYS     7      58.612  43.014  48.562  1.00 99.99    -0.646 OA
ATOM     48  OXT LYS     7      57.046  44.482  47.941  1.00 99.99    -0.646 OA
ENDBRANCH  45  46
BRANCH  45  49
ATOM     49  CB  LYS     7      56.898  41.377  46.848  1.00  0.00     0.033 C 
BRANCH  49  50
ATOM     50  CG  LYS     7      55.932  40.714  45.869  1.00  0.00     0.004 C 
BRANCH  50  51
ATOM     51  CD  LYS     7      56.451  39.288  45.686  1.00  0.00     0.032 C 
BRANCH  51  52
ATOM     52  CE  LYS     7      57.296  39.090  44.431  1.00  0.00     0.206 C 
BRANCH  52  53
ATOM     53  NZ  LYS     7      56.714  39.904  43.355  1.00  0.00    -0.064 N 
ATOM     54  HZ1 LYS     7      55.725  39.974  43.482  1.00 99.99     0.275 HD
ATOM     55  HZ2 LYS     7      57.124  40.814  43.366  1.00 99.99     0.275 HD
ATOM     56  HZ3 LYS     7      56.907  39.465  42.477  1.00 99.99     0.275 HD
ENDBRANCH  52  53
ENDBRANCH  51  52
ENDBRANCH  50  51
ENDBRANCH  49  50
ENDBRANCH  45  49
ENDBRANCH  42  45
ENDBRANCH  32  41
ENDBRANCH  30  32
ENDBRANCH  27  28
BRANCH  27  57
ATOM     57  CB  LYS     5      62.829  40.208  46.736  1.00  0.00     0.032 C 
BRANCH  57  58
ATOM     58  CG  LYS     5      63.120  39.636  48.123  1.00  0.00     0.004 C 
BRANCH  58  59
ATOM     59  CD  LYS     5      61.904  38.834  48.589  1.00  0.00     0.032 C 
BRANCH  59  60
ATOM     60  CE  LYS     5      60.923  39.695  49.385  1.00  0.00     0.206 C 
BRANCH  60  61
ATOM     61  NZ  LYS     5      60.196  40.604  48.487  1.00  0.00    -0.064 N 
ATOM     62  HZ3 LYS     5      59.485  40.089  48.005  1.00 99.99     0.275 HD
ATOM     63  HZ2 LYS     5      60.828  40.999  47.822  1.00 99.99     0.275 HD
ATOM     64  HZ1 LYS     5      59.767  41.332  49.022  1.00 99.99     0.275 HD
ENDBRANCH  60  61
ENDBRANCH  59  60
ENDBRANCH  58  59
ENDBRANCH  57  58
ENDBRANCH  27  57
ENDBRANCH  24  27
ENDBRANCH  22  23
BRANCH  22  65
ATOM     65  CB  LEU     4      64.018  44.169  49.781  1.00  0.00     0.032 C 
BRANCH  65  66
ATOM     66  CG  LEU     4      64.220  45.649  50.127  1.00  0.00     0.002 C 
ATOM     67  CD2 LEU     4      63.149  46.531  49.477  1.00  0.00     0.000 C 
ATOM     68  CD1 LEU     4      65.607  46.087  49.653  1.00  0.00     0.000 C 
ENDBRANCH  65  66
ENDBRANCH  22  65
ENDBRANCH  20  22
ENDBRANCH  16  18
ENDBRANCH  14  16
ENDBRANCH  11  12
BRANCH  11  69
ATOM     69  CB  PHE     2      56.932  42.557  51.492  1.00  0.00     0.056 C 
BRANCH  69  70
ATOM     70  CG  PHE     2      55.895  41.844  50.619  1.00  0.00    -0.044 A 
ATOM     71  CD1 PHE     2      56.056  40.502  50.295  1.00  0.00     0.008 A 
ATOM     72  CE1 PHE     2      55.056  39.831  49.600  1.00  0.00     0.001 A 
ATOM     73  CZ  PHE     2      53.893  40.499  49.236  1.00  0.00     0.000 A 
ATOM     74  CE2 PHE     2      53.741  41.845  49.546  1.00  0.00     0.001 A 
ATOM     75  CD2 PHE     2      54.742  42.517  50.235  1.00  0.00     0.008 A 
ENDBRANCH  69  70
ENDBRANCH  11  69
ENDBRANCH   8  11
ENDBRANCH   5   7
ENDBRANCH   1   5
TORSDOF 33
ENDMDL
MODEL 2
REMARK VINA RESULT:      -4.8      1.917      5.246
REMARK WARNING: 32 MAX_TORS EXCEEDED!!!
REMARK  33 active torsions:
REMARK  status: ('A' for Active; 'I' for Inactive)
REMARK    1  A    between atoms: N_1  and  CA_2 
REMARK    2  A    between atoms: CA_2  and  C_3 
REMARK       I    between atoms: C_3  and  N_9 
REMARK    3  A    between atoms: N_9  and  CA_10 
REMARK    4  A    between atoms: CA_10  and  C_11 
REMARK    5  A    between atoms: CA_10  and  CB_13 
REMARK       I    between atoms: C_11  and  N_21 
REMARK    6  A    between atoms: CB_13  and  CG_14 
REMARK    7  A    between atoms: N_21  and  CA_22 
REMARK    8  A    between atoms: CA_22  and  C_23 
REMARK       I    between atoms: C_23  and  N_27 
REMARK    9  A    between atoms: N_27  and  CA_28 
REMARK   10  A    between atoms: CA_28  and  C_29 
REMARK   11  A    between atoms: CA_28  and  CB_31 
REMARK       I    between atoms: C_29  and  N_36 
REMARK   12  A    between atoms: CB_31  and  CG_32 
REMARK   13  A    between atoms: N_36  and  CA_37 
REMARK   14  A    between atoms: CA_37  and  C_38 
REMARK   15  A    between atoms: CA_37  and  CB_40 
REMARK       I    between atoms: C_38  and  N_49 
REMARK   16  A    between atoms: CB_40  and  CG_41 
REMARK   17  A    between atoms: CG_41  and  CD_42 
REMARK   18  A    between atoms: CD_42  and  CE_43 
REMARK   19  A    between atoms: CE_43  and  NZ_44 
REMARK   20  A    between atoms: N_49  and  CA_50 
REMARK   21  A    between atoms: CA_50  and  CB_53 
REMARK   22  A    between atoms: CA_50  and  C_51 
REMARK       I    between atoms: C_51  and  N_62 
REMARK   23  A    between atoms: CB_53  and  CG_54 
REMARK   24  A    between atoms: CG_54  and  CD_55 
REMARK   25  A    between atoms: CD_55  and  CE_56 
REMARK   26  A    between atoms: CE_56  and  NZ_57 
REMARK   27  A    between atoms: N_62  and  CA_63 
REMARK   28  A    between atoms: CA_63  and  C_64 
REMARK   29  A    between atoms: CA_63  and  CB_66 
REMARK   30  A    between atoms: CB_66  and  CG_67 
REMARK   31  A    between atoms: CG_67  and  CD_68 
REMARK   32  A    between atoms: CD_68  and  CE_69 
REMARK   33  A    between atoms: CE_69  and  NZ_70 
ROOT
ATOM      1  N   ALA     1      58.773  43.674  46.775  1.00  0.00    -0.058 N 
ATOM      2  H1  ALA     1      59.276  43.359  47.578  1.00 99.99     0.276 HD
ATOM      3  H2  ALA     1      59.293  43.498  45.954  1.00 99.99     0.276 HD
ATOM      4  H3  ALA     1      58.691  44.666  46.814  1.00 99.99     0.276 HD
ENDROOT
BRANCH   1   5
ATOM      5  CA  ALA     1      57.443  43.020  46.734  1.00  0.00     0.255 C 
ATOM      6  CB  ALA     1      57.594  41.497  46.574  1.00  0.00     0.042 C 
BRANCH   5   7
ATOM      7  C   ALA     1      56.515  43.423  47.910  1.00  0.00     0.259 C 
ATOM      8  N   PHE     2      55.998  42.454  48.680  1.00  0.00    -0.337 N 
ATOM      9  H   PHE     2      56.182  41.488  48.502  1.00 99.99     0.164 HD
ATOM     10  O   ALA     1      56.532  44.596  48.279  1.00  0.00    -0.271 OA
BRANCH   8  11
ATOM     11  CA  PHE     2      55.000  42.685  49.753  1.00  0.00     0.164 C 
BRANCH  11  12
ATOM     12  C   PHE     2      55.556  42.896  51.177  1.00  0.00     0.251 C 
ATOM     13  O   PHE     2      55.421  43.994  51.710  1.00  0.00    -0.271 OA
ATOM     14  N   ALA     3      56.266  41.900  51.718  1.00  0.00    -0.338 N 
ATOM     15  H   ALA     3      56.261  40.987  51.320  1.00 99.99     0.164 HD
BRANCH  14  16
ATOM     16  CA  ALA     3      56.966  41.997  53.022  1.00  0.00     0.159 C 
ATOM     17  CB  ALA     3      56.806  40.673  53.782  1.00  0.00     0.034 C 
BRANCH  16  18
ATOM     18  C   ALA     3      58.452  42.387  52.874  1.00  0.00     0.251 C 
ATOM     19  O   ALA     3      58.863  43.384  53.459  1.00  0.00    -0.271 OA
ATOM     20  N   LEU     4      59.106  41.797  51.871  1.00  0.00    -0.338 N 
ATOM     21  H   LEU     4      58.666  41.066  51.357  1.00 99.99     0.164 HD
BRANCH  20  22
ATOM     22  CA  LEU     4      60.509  42.022  51.448  1.00  0.00     0.159 C 
BRANCH  22  23
ATOM     23  C   LEU     4      60.747  42.488  49.994  1.00  0.00     0.251 C 
ATOM     24  N   LYS     5      61.764  43.324  49.795  1.00  0.00    -0.338 N 
ATOM     25  H   LYS     5      62.271  43.718  50.562  1.00 99.99     0.164 HD
ATOM     26  O   LEU     4      59.919  42.226  49.124  1.00  0.00    -0.271 OA
BRANCH  24  27
ATOM     27  CA  LYS     5      62.205  43.800  48.466  1.00  0.00     0.159 C 
BRANCH  27  28
ATOM     28  C   LYS     5      62.864  42.724  47.574  1.00  0.00     0.251 C 
ATOM     29  O   LYS     5      64.042  42.418  47.740  1.00  0.00    -0.271 OA
ATOM     30  N   LYS     6      62.059  42.083  46.726  1.00  0.00    -0.338 N 
ATOM     31  H   LYS     6      61.078  42.285  46.710  1.00 99.99     0.164 HD
BRANCH  30  32
ATOM     32  CA  LYS     6      62.484  40.981  45.833  1.00  0.00     0.159 C 
BRANCH  32  33
ATOM     33  CB  LYS     6      62.264  39.663  46.586  1.00  0.00     0.032 C 
BRANCH  33  34
ATOM     34  CG  LYS     6      60.826  39.547  47.096  1.00  0.00     0.004 C 
BRANCH  34  35
ATOM     35  CD  LYS     6      60.430  38.111  47.436  1.00  0.00     0.032 C 
BRANCH  35  36
ATOM     36  CE  LYS     6      60.469  37.282  46.151  1.00  0.00     0.206 C 
BRANCH  36  37
ATOM     37  NZ  LYS     6      59.748  36.011  46.296  1.00  0.00    -0.064 N 
ATOM     38  HZ1 LYS     6      60.414  35.268  46.369  1.00 99.99     0.275 HD
ATOM     39  HZ2 LYS     6      59.190  36.042  47.123  1.00 99.99     0.275 HD
ATOM     40  HZ3 LYS     6      59.168  35.864  45.496  1.00 99.99     0.275 HD
ENDBRANCH  36  37
ENDBRANCH  35  36
ENDBRANCH  34  35
ENDBRANCH  33  34
ENDBRANCH  32  33
BRANCH  32  41
ATOM     41  C   LYS     6      61.754  40.963  44.469  1.00  0.00     0.251 C 
ATOM     42  N   LYS     7      60.747  41.826  44.356  1.00  0.00    -0.336 N 
ATOM     43  H   LYS     7      60.506  42.426  45.123  1.00 99.99     0.164 HD
ATOM     44  O   LYS     6      61.975  40.086  43.638  1.00  0.00    -0.271 OA
BRANCH  42  45
ATOM     45  CA  LYS     7      59.917  42.052  43.152  1.00  0.00     0.168 C 
BRANCH  45  46
ATOM     46  C   LYS     7      59.745  43.567  42.959  1.00  0.00     0.206 C 
ATOM     47  O   LYS     7      59.467  44.269  43.955  1.00 99.99    -0.646 OA
ATOM     48  OXT LYS     7      59.903  43.973  41.784  1.00 99.99    -0.646 OA
ENDBRANCH  45  46
BRANCH  45  49
ATOM     49  CB  LYS     7      58.498  41.513  43.353  1.00  0.00     0.033 C 
BRANCH  49  50
ATOM     50  CG  LYS     7      58.153  40.159  42.735  1.00  0.00     0.004 C 
BRANCH  50  51
ATOM     51  CD  LYS     7      58.398  39.132  43.841  1.00  0.00     0.032 C 
BRANCH  51  52
ATOM     52  CE  LYS     7      57.306  38.072  43.958  1.00  0.00     0.206 C 
BRANCH  52  53
ATOM     53  NZ  LYS     7      56.052  38.652  43.458  1.00  0.00    -0.064 N 
ATOM     54  HZ1 LYS     7      56.243  39.261  42.689  1.00 99.99     0.275 HD
ATOM     55  HZ2 LYS     7      55.439  37.919  43.168  1.00 99.99     0.275 HD
ATOM     56  HZ3 LYS     7      55.619  39.171  44.196  1.00 99.99     0.275 HD
ENDBRANCH  52  53
ENDBRANCH  51  52
ENDBRANCH  50  51
ENDBRANCH  49  50
ENDBRANCH  45  49
ENDBRANCH  42  45
ENDBRANCH  32  41
ENDBRANCH  30  32
ENDBRANCH  27  28
BRANCH  27  57
ATOM     57  CB  LYS     5      63.194  44.959  48.636  1.00  0.00     0.032 C 
BRANCH  57  58
ATOM     58  CG  LYS     5      63.529  45.274  50.094  1.00  0.00     0.004 C 
BRANCH  58  59
ATOM     59  CD  LYS     5      64.998  45.694  50.181  1.00  0.00     0.032 C 
BRANCH  59  60
ATOM     60  CE  LYS     5      65.789  45.263  48.946  1.00  0.00     0.206 C 
BRANCH  60  61
ATOM     61  NZ  LYS     5      66.505  44.007  49.210  1.00  0.00    -0.064 N 
ATOM     62  HZ3 LYS     5      65.843  43.300  49.466  1.00 99.99     0.275 HD
ATOM     63  HZ2 LYS     5      67.154  44.138  49.958  1.00 99.99     0.275 HD
ATOM     64  HZ1 LYS     5      66.991  43.718  48.386  1.00 99.99     0.275 HD
ENDBRANCH  60  61
ENDBRANCH  59  60
ENDBRANCH  58  59
ENDBRANCH  57  58
ENDBRANCH  27  57
ENDBRANCH  24  27
ENDBRANCH  22  23
BRANCH  22  65
ATOM     65  CB  LEU     4      61.287  40.715  51.660  1.00  0.00     0.032 C 
BRANCH  65  66
ATOM     66  CG  LEU     4      62.088  40.639  52.966  1.00  0.00     0.002 C 
ATOM     67  CD2 LEU     4      61.276  39.986  54.088  1.00  0.00     0.000 C 
ATOM     68  CD1 LEU     4      62.500  42.052  53.381  1.00  0.00     0.000 C 
ENDBRANCH  65  66
ENDBRANCH  22  65
ENDBRANCH  20  22
ENDBRANCH  16  18
ENDBRANCH  14  16
ENDBRANCH  11  12
BRANCH  11  69
ATOM     69  CB  PHE     2      53.962  41.557  49.713  1.00  0.00     0.056 C 
BRANCH  69  70
ATOM     70  CG  PHE     2      54.423  40.348  48.892  1.00  0.00    -0.044 A 
ATOM     71  CD1 PHE     2      53.961  40.167  47.593  1.00  0.00     0.008 A 
ATOM     72  CE1 PHE     2      54.469  39.134  46.813  1.00  0.00     0.001 A 
ATOM     73  CZ  PHE     2      55.442  38.288  47.329  1.00  0.00     0.000 A 
ATOM     74  CE2 PHE     2      55.892  38.460  48.632  1.00  0.00     0.001 A 
ATOM     75  CD2 PHE     2      55.380  39.488  49.414  1.00  0.00     0.008 A 
ENDBRANCH  69  70
ENDBRANCH  11  69
ENDBRANCH   8  11
ENDBRANCH   5   7
ENDBRANCH   1   5
TORSDOF 33
ENDMDL
MODEL 3
REMARK VINA RESULT:      -4.7      2.645      7.906
REMARK WARNING: 32 MAX_TORS EXCEEDED!!!
REMARK  33 active torsions:
REMARK  status: ('A' for Active; 'I' for Inactive)
REMARK    1  A    between atoms: N_1  and  CA_2 
REMARK    2  A    between atoms: CA_2  and  C_3 
REMARK       I    between atoms: C_3  and  N_9 
REMARK    3  A    between atoms: N_9  and  CA_10 
REMARK    4  A    between atoms: CA_10  and  C_11 
REMARK    5  A    between atoms: CA_10  and  CB_13 
REMARK       I    between atoms: C_11  and  N_21 
REMARK    6  A    between atoms: CB_13  and  CG_14 
REMARK    7  A    between atoms: N_21  and  CA_22 
REMARK    8  A    between atoms: CA_22  and  C_23 
REMARK       I    between atoms: C_23  and  N_27 
REMARK    9  A    between atoms: N_27  and  CA_28 
REMARK   10  A    between atoms: CA_28  and  C_29 
REMARK   11  A    between atoms: CA_28  and  CB_31 
REMARK       I    between atoms: C_29  and  N_36 
REMARK   12  A    between atoms: CB_31  and  CG_32 
REMARK   13  A    between atoms: N_36  and  CA_37 
REMARK   14  A    between atoms: CA_37  and  C_38 
REMARK   15  A    between atoms: CA_37  and  CB_40 
REMARK       I    between atoms: C_38  and  N_49 
REMARK   16  A    between atoms: CB_40  and  CG_41 
REMARK   17  A    between atoms: CG_41  and  CD_42 
REMARK   18  A    between atoms: CD_42  and  CE_43 
REMARK   19  A    between atoms: CE_43  and  NZ_44 
REMARK   20  A    between atoms: N_49  and  CA_50 
REMARK   21  A    between atoms: CA_50  and  CB_53 
REMARK   22  A    between atoms: CA_50  and  C_51 
REMARK       I    between atoms: C_51  and  N_62 
REMARK   23  A    between atoms: CB_53  and  CG_54 
REMARK   24  A    between atoms: CG_54  and  CD_55 
REMARK   25  A    between atoms: CD_55  and  CE_56 
REMARK   26  A    between atoms: CE_56  and  NZ_57 
REMARK   27  A    between atoms: N_62  and  CA_63 
REMARK   28  A    between atoms: CA_63  and  C_64 
REMARK   29  A    between atoms: CA_63  and  CB_66 
REMARK   30  A    between atoms: CB_66  and  CG_67 
REMARK   31  A    between atoms: CG_67  and  CD_68 
REMARK   32  A    between atoms: CD_68  and  CE_69 
REMARK   33  A    between atoms: CE_69  and  NZ_70 
ROOT
ATOM      1  N   ALA     1      64.102  39.947  47.436  1.00  0.00    -0.058 N 
ATOM      2  H1  ALA     1      64.055  40.305  46.505  1.00 99.99     0.276 HD
ATOM      3  H2  ALA     1      63.620  39.086  47.496  1.00 99.99     0.276 HD
ATOM      4  H3  ALA     1      63.601  40.557  48.043  1.00 99.99     0.276 HD
ENDROOT
BRANCH   1   5
ATOM      5  CA  ALA     1      65.520  39.814  47.846  1.00  0.00     0.255 C 
ATOM      6  CB  ALA     1      66.312  39.009  46.801  1.00  0.00     0.042 C 
BRANCH   5   7
ATOM      7  C   ALA     1      66.190  41.164  48.214  1.00  0.00     0.259 C 
ATOM      8  N   PHE     2      65.521  42.300  47.967  1.00  0.00    -0.337 N 
ATOM      9  H   PHE     2      64.618  42.294  47.539  1.00 99.99     0.164 HD
ATOM     10  O   ALA     1      67.149  41.138  48.983  1.00  0.00    -0.271 OA
BRANCH   8  11
ATOM     11  CA  PHE     2      66.088  43.658  48.150  1.00  0.00     0.164 C 
BRANCH  11  12
ATOM     12  C   PHE     2      65.369  44.577  49.161  1.00  0.00     0.251 C 
ATOM     13  O   PHE     2      65.950  45.576  49.573  1.00  0.00    -0.271 OA
ATOM     14  N   ALA     3      64.183  44.171  49.630  1.00  0.00    -0.338 N 
ATOM     15  H   ALA     3      63.684  43.426  49.197  1.00 99.99     0.164 HD
BRANCH  14  16
ATOM     16  CA  ALA     3      63.429  44.878  50.692  1.00  0.00     0.159 C 
ATOM     17  CB  ALA     3      62.556  45.967  50.054  1.00  0.00     0.034 C 
BRANCH  16  18
ATOM     18  C   ALA     3      62.590  43.921  51.567  1.00  0.00     0.251 C 
ATOM     19  O   ALA     3      61.844  44.398  52.416  1.00  0.00    -0.271 OA
ATOM     20  N   LEU     4      62.973  42.644  51.553  1.00  0.00    -0.338 N 
ATOM     21  H   LEU     4      63.674  42.345  50.911  1.00 99.99     0.164 HD
BRANCH  20  22
ATOM     22  CA  LEU     4      62.405  41.519  52.336  1.00  0.00     0.159 C 
BRANCH  22  23
ATOM     23  C   LEU     4      60.990  41.031  51.953  1.00  0.00     0.251 C 
ATOM     24  N   LYS     5      59.992  41.892  52.139  1.00  0.00    -0.338 N 
ATOM     25  H   LYS     5      60.137  42.763  52.609  1.00 99.99     0.164 HD
ATOM     26  O   LEU     4      60.807  39.851  51.664  1.00  0.00    -0.271 OA
BRANCH  24  27
ATOM     27  CA  LYS     5      58.589  41.643  51.742  1.00  0.00     0.159 C 
BRANCH  27  28
ATOM     28  C   LYS     5      58.340  41.605  50.218  1.00  0.00     0.251 C 
ATOM     29  O   LYS     5      58.359  42.644  49.561  1.00  0.00    -0.271 OA
ATOM     30  N   LYS     6      58.232  40.397  49.664  1.00  0.00    -0.338 N 
ATOM     31  H   LYS     6      58.342  39.574  50.223  1.00 99.99     0.164 HD
BRANCH  30  32
ATOM     32  CA  LYS     6      58.053  40.149  48.215  1.00  0.00     0.159 C 
BRANCH  32  33
ATOM     33  CB  LYS     6      56.975  41.115  47.709  1.00  0.00     0.032 C 
BRANCH  33  34
ATOM     34  CG  LYS     6      55.870  40.371  46.955  1.00  0.00     0.004 C 
BRANCH  34  35
ATOM     35  CD  LYS     6      55.961  38.854  47.114  1.00  0.00     0.032 C 
BRANCH  35  36
ATOM     36  CE  LYS     6      56.021  38.224  45.722  1.00  0.00     0.206 C 
BRANCH  36  37
ATOM     37  NZ  LYS     6      55.662  39.182  44.670  1.00  0.00    -0.064 N 
ATOM     38  HZ1 LYS     6      54.689  39.083  44.461  1.00 99.99     0.275 HD
ATOM     39  HZ2 LYS     6      55.842  40.109  44.994  1.00 99.99     0.275 HD
ATOM     40  HZ3 LYS     6      56.202  38.995  43.850  1.00 99.99     0.275 HD
ENDBRANCH  36  37
ENDBRANCH  35  36
ENDBRANCH  34  35
ENDBRANCH  33  34
ENDBRANCH  32  33
BRANCH  32  41
ATOM     41  C   LYS     6      59.353  40.294  47.389  1.00  0.00     0.251 C 
ATOM     42  N   LYS     7      59.743  41.546  47.165  1.00  0.00    -0.336 N 
ATOM     43  H   LYS     7      59.205  42.315  47.519  1.00 99.99     0.164 HD
ATOM     44  O   LYS     6      59.865  39.327  46.829  1.00  0.00    -0.271 OA
BRANCH  42  45
ATOM     45  CA  LYS     7      60.968  41.969  46.451  1.00  0.00     0.168 C 
BRANCH  45  46
ATOM     46  C   LYS     7      61.872  42.720  47.441  1.00  0.00     0.206 C 
ATOM     47  O   LYS     7      61.633  42.620  48.663  1.00 99.99    -0.646 OA
ATOM     48  OXT LYS     7      62.795  43.386  46.916  1.00 99.99    -0.646 OA
ENDBRANCH  45  46
BRANCH  45  49
ATOM     49  CB  LYS     7      60.642  42.990  45.356  1.00  0.00     0.033 C 
BRANCH  49  50
ATOM     50  CG  LYS     7      59.174  43.204  44.992  1.00  0.00     0.004 C 
BRANCH  50  51
ATOM     51  CD  LYS     7      59.045  42.756  43.537  1.00  0.00     0.032 C 
BRANCH  51  52
ATOM     52  CE  LYS     7      57.932  41.740  43.294  1.00  0.00     0.206 C 
BRANCH  52  53
ATOM     53  NZ  LYS     7      57.626  41.734  41.858  1.00  0.00    -0.064 N 
ATOM     54  HZ1 LYS     7      57.080  42.539  41.625  1.00 99.99     0.275 HD
ATOM     55  HZ2 LYS     7      58.477  41.737  41.335  1.00 99.99     0.275 HD
ATOM     56  HZ3 LYS     7      57.108  40.906  41.641  1.00 99.99     0.275 HD
ENDBRANCH  52  53
ENDBRANCH  51  52
ENDBRANCH  50  51
ENDBRANCH  49  50
ENDBRANCH  45  49
ENDBRANCH  42  45
ENDBRANCH  32  41
ENDBRANCH  30  32
ENDBRANCH  27  28
BRANCH  27  57
ATOM     57  CB  LYS     5      57.682  42.716  52.354  1.00  0.00     0.032 C 
BRANCH  57  58
ATOM     58  CG  LYS     5      56.194  42.367  52.303  1.00  0.00     0.004 C 
BRANCH  58  59
ATOM     59  CD  LYS     5      55.453  43.481  51.563  1.00  0.00     0.032 C 
BRANCH  59  60
ATOM     60  CE  LYS     5      54.967  43.028  50.186  1.00  0.00     0.206 C 
BRANCH  60  61
ATOM     61  NZ  LYS     5      55.442  43.952  49.147  1.00  0.00    -0.064 N 
ATOM     62  HZ3 LYS     5      54.930  43.788  48.302  1.00 99.99     0.275 HD
ATOM     63  HZ2 LYS     5      56.415  43.800  48.978  1.00 99.99     0.275 HD
ATOM     64  HZ1 LYS     5      55.293  44.895  49.443  1.00 99.99     0.275 HD
ENDBRANCH  60  61
ENDBRANCH  59  60
ENDBRANCH  58  59
ENDBRANCH  57  58
ENDBRANCH  27  57
ENDBRANCH  24  27
ENDBRANCH  22  23
BRANCH  22  65
ATOM     65  CB  LEU     4      62.381  41.930  53.815  1.00  0.00     0.032 C 
BRANCH  65  66
ATOM     66  CG  LEU     4      62.989  40.909  54.784  1.00  0.00     0.002 C 
ATOM     67  CD2 LEU     4      63.488  41.579  56.068  1.00  0.00     0.000 C 
ATOM     68  CD1 LEU     4      64.148  40.193  54.091  1.00  0.00     0.000 C 
ENDBRANCH  65  66
ENDBRANCH  22  65
ENDBRANCH  20  22
ENDBRANCH  16  18
ENDBRANCH  14  16
ENDBRANCH  11  12
BRANCH  11  69
ATOM     69  CB  PHE     2      66.223  44.326  46.776  1.00  0.00     0.056 C 
BRANCH  69  70
ATOM     70  CG  PHE     2      66.724  43.367  45.691  1.00  0.00    -0.044 A 
ATOM     71  CD1 PHE     2      68.080  43.076  45.586  1.00  0.00     0.008 A 
ATOM     72  CE1 PHE     2      68.516  42.120  44.676  1.00  0.00     0.001 A 
ATOM     73  CZ  PHE     2      67.597  41.451  43.877  1.00  0.00     0.000 A 
ATOM     74  CE2 PHE     2      66.245  41.754  43.971  1.00  0.00     0.001 A 
ATOM     75  CD2 PHE     2      65.809  42.713  44.876  1.00  0.00     0.008 A 
ENDBRANCH  69  70
ENDBRANCH  11  69
ENDBRANCH   8  11
ENDBRANCH   5   7
ENDBRANCH   1   5
TORSDOF 33
ENDMDL
MODEL 4
REMARK VINA RESULT:      -4.7      2.559      6.572
REMARK WARNING: 32 MAX_TORS EXCEEDED!!!
REMARK  33 active torsions:
REMARK  status: ('A' for Active; 'I' for Inactive)
REMARK    1  A    between atoms: N_1  and  CA_2 
REMARK    2  A    between atoms: CA_2  and  C_3 
REMARK       I    between atoms: C_3  and  N_9 
REMARK    3  A    between atoms: N_9  and  CA_10 
REMARK    4  A    between atoms: CA_10  and  C_11 
REMARK    5  A    between atoms: CA_10  and  CB_13 
REMARK       I    between atoms: C_11  and  N_21 
REMARK    6  A    between atoms: CB_13  and  CG_14 
REMARK    7  A    between atoms: N_21  and  CA_22 
REMARK    8  A    between atoms: CA_22  and  C_23 
REMARK       I    between atoms: C_23  and  N_27 
REMARK    9  A    between atoms: N_27  and  CA_28 
REMARK   10  A    between atoms: CA_28  and  C_29 
REMARK   11  A    between atoms: CA_28  and  CB_31 
REMARK       I    between atoms: C_29  and  N_36 
REMARK   12  A    between atoms: CB_31  and  CG_32 
REMARK   13  A    between atoms: N_36  and  CA_37 
REMARK   14  A    between atoms: CA_37  and  C_38 
REMARK   15  A    between atoms: CA_37  and  CB_40 
REMARK       I    between atoms: C_38  and  N_49 
REMARK   16  A    between atoms: CB_40  and  CG_41 
REMARK   17  A    between atoms: CG_41  and  CD_42 
REMARK   18  A    between atoms: CD_42  and  CE_43 
REMARK   19  A    between atoms: CE_43  and  NZ_44 
REMARK   20  A    between atoms: N_49  and  CA_50 
REMARK   21  A    between atoms: CA_50  and  CB_53 
REMARK   22  A    between atoms: CA_50  and  C_51 
REMARK       I    between atoms: C_51  and  N_62 
REMARK   23  A    between atoms: CB_53  and  CG_54 
REMARK   24  A    between atoms: CG_54  and  CD_55 
REMARK   25  A    between atoms: CD_55  and  CE_56 
REMARK   26  A    between atoms: CE_56  and  NZ_57 
REMARK   27  A    between atoms: N_62  and  CA_63 
REMARK   28  A    between atoms: CA_63  and  C_64 
REMARK   29  A    between atoms: CA_63  and  CB_66 
REMARK   30  A    between atoms: CB_66  and  CG_67 
REMARK   31  A    between atoms: CG_67  and  CD_68 
REMARK   32  A    between atoms: CD_68  and  CE_69 
REMARK   33  A    between atoms: CE_69  and  NZ_70 
ROOT
ATOM      1  N   ALA     1      54.840  36.994  53.322  1.00  0.00    -0.058 N 
ATOM      2  H1  ALA     1      55.625  36.748  52.757  1.00 99.99     0.276 HD
ATOM      3  H2  ALA     1      55.108  37.060  54.271  1.00 99.99     0.276 HD
ATOM      4  H3  ALA     1      54.179  36.249  53.299  1.00 99.99     0.276 HD
ENDROOT
BRANCH   1   5
ATOM      5  CA  ALA     1      54.250  38.261  52.828  1.00  0.00     0.255 C 
ATOM      6  CB  ALA     1      54.943  39.470  53.479  1.00  0.00     0.042 C 
BRANCH   5   7
ATOM      7  C   ALA     1      54.182  38.353  51.281  1.00  0.00     0.259 C 
ATOM      8  N   PHE     2      55.044  39.163  50.649  1.00  0.00    -0.337 N 
ATOM      9  H   PHE     2      55.709  39.715  51.150  1.00 99.99     0.164 HD
ATOM     10  O   ALA     1      53.568  37.474  50.679  1.00  0.00    -0.271 OA
BRANCH   8  11
ATOM     11  CA  PHE     2      55.009  39.444  49.193  1.00  0.00     0.164 C 
BRANCH  11  12
ATOM     12  C   PHE     2      56.104  38.776  48.334  1.00  0.00     0.251 C 
ATOM     13  O   PHE     2      56.838  37.940  48.854  1.00  0.00    -0.271 OA
ATOM     14  N   ALA     3      56.277  39.231  47.088  1.00  0.00    -0.338 N 
ATOM     15  H   ALA     3      55.600  39.819  46.655  1.00 99.99     0.164 HD
BRANCH  14  16
ATOM     16  CA  ALA     3      57.363  38.778  46.186  1.00  0.00     0.159 C 
ATOM     17  CB  ALA     3      56.755  37.996  45.014  1.00  0.00     0.034 C 
BRANCH  16  18
ATOM     18  C   ALA     3      58.250  39.940  45.690  1.00  0.00     0.251 C 
ATOM     19  O   ALA     3      58.655  39.922  44.532  1.00  0.00    -0.271 OA
ATOM     20  N   LEU     4      58.773  40.714  46.643  1.00  0.00    -0.338 N 
ATOM     21  H   LEU     4      58.483  40.596  47.589  1.00 99.99     0.164 HD
BRANCH  20  22
ATOM     22  CA  LEU     4      59.706  41.853  46.474  1.00  0.00     0.159 C 
BRANCH  22  23
ATOM     23  C   LEU     4      61.216  41.563  46.627  1.00  0.00     0.251 C 
ATOM     24  N   LYS     5      62.018  42.620  46.736  1.00  0.00    -0.338 N 
ATOM     25  H   LYS     5      61.673  43.550  46.609  1.00 99.99     0.164 HD
ATOM     26  O   LEU     4      61.638  40.419  46.474  1.00  0.00    -0.271 OA
BRANCH  24  27
ATOM     27  CA  LYS     5      63.473  42.542  46.988  1.00  0.00     0.159 C 
BRANCH  27  28
ATOM     28  C   LYS     5      63.939  43.162  48.324  1.00  0.00     0.251 C 
ATOM     29  O   LYS     5      65.131  43.168  48.622  1.00  0.00    -0.271 OA
ATOM     30  N   LYS     6      63.006  43.783  49.046  1.00  0.00    -0.338 N 
ATOM     31  H   LYS     6      62.068  43.856  48.704  1.00 99.99     0.164 HD
BRANCH  30  32
ATOM     32  CA  LYS     6      63.263  44.491  50.321  1.00  0.00     0.159 C 
BRANCH  32  33
ATOM     33  CB  LYS     6      62.917  45.971  50.108  1.00  0.00     0.032 C 
BRANCH  33  34
ATOM     34  CG  LYS     6      64.088  46.730  49.481  1.00  0.00     0.004 C 
BRANCH  34  35
ATOM     35  CD  LYS     6      65.442  46.312  50.051  1.00  0.00     0.032 C 
BRANCH  35  36
ATOM     36  CE  LYS     6      66.527  46.670  49.035  1.00  0.00     0.206 C 
BRANCH  36  37
ATOM     37  NZ  LYS     6      66.433  45.851  47.820  1.00  0.00    -0.064 N 
ATOM     38  HZ1 LYS     6      66.604  46.433  47.024  1.00 99.99     0.275 HD
ATOM     39  HZ2 LYS     6      67.118  45.126  47.859  1.00 99.99     0.275 HD
ATOM     40  HZ3 LYS     6      65.517  45.455  47.754  1.00 99.99     0.275 HD
ENDBRANCH  36  37
ENDBRANCH  35  36
ENDBRANCH  34  35
ENDBRANCH  33  34
ENDBRANCH  32  33
BRANCH  32  41
ATOM     41  C   LYS     6      62.484  43.913  51.527  1.00  0.00     0.251 C 
ATOM     42  N   LYS     7      62.233  42.608  51.463  1.00  0.00    -0.336 N 
ATOM     43  H   LYS     7      62.538  42.071  50.673  1.00 99.99     0.164 HD
ATOM     44  O   LYS     6      61.980  44.647  52.373  1.00  0.00    -0.271 OA
BRANCH  42  45
ATOM     45  CA  LYS     7      61.554  41.794  52.496  1.00  0.00     0.168 C 
BRANCH  45  46
ATOM     46  C   LYS     7      62.602  41.348  53.528  1.00  0.00     0.206 C 
ATOM     47  O   LYS     7      63.414  40.455  53.208  1.00 99.99    -0.646 OA
ATOM     48  OXT LYS     7      62.544  41.940  54.632  1.00 99.99    -0.646 OA
ENDBRANCH  45  46
BRANCH  45  49
ATOM     49  CB  LYS     7      61.005  40.494  51.899  1.00  0.00     0.033 C 
BRANCH  49  50
ATOM     50  CG  LYS     7      61.079  40.316  50.384  1.00  0.00     0.004 C 
BRANCH  50  51
ATOM     51  CD  LYS     7      59.998  39.292  50.041  1.00  0.00     0.032 C 
BRANCH  51  52
ATOM     52  CE  LYS     7      60.396  38.313  48.939  1.00  0.00     0.206 C 
BRANCH  52  53
ATOM     53  NZ  LYS     7      59.658  37.061  49.154  1.00  0.00    -0.064 N 
ATOM     54  HZ1 LYS     7      59.198  37.087  50.041  1.00 99.99     0.275 HD
ATOM     55  HZ2 LYS     7      58.986  36.940  48.425  1.00 99.99     0.275 HD
ATOM     56  HZ3 LYS     7      60.305  36.297  49.136  1.00 99.99     0.275 HD
ENDBRANCH  52  53
ENDBRANCH  51  52
ENDBRANCH  50  51
ENDBRANCH  49  50
ENDBRANCH  45  49
ENDBRANCH  42  45
ENDBRANCH  32  41
ENDBRANCH  30  32
ENDBRANCH  27  28
BRANCH  27  57
ATOM     57  CB  LYS     5      64.232  43.228  45.846  1.00  0.00     0.032 C 
BRANCH  57  58
ATOM     58  CG  LYS     5      65.049  42.265  44.984  1.00  0.00     0.004 C 
BRANCH  58  59
ATOM     59  CD  LYS     5      64.610  42.416  43.527  1.00  0.00     0.032 C 
BRANCH  59  60
ATOM     60  CE  LYS     5      63.144  42.029  43.330  1.00  0.00     0.206 C 
BRANCH  60  61
ATOM     61  NZ  LYS     5      62.945  40.605  43.638  1.00  0.00    -0.064 N 
ATOM     62  HZ3 LYS     5      61.968  40.431  43.766  1.00 99.99     0.275 HD
ATOM     63  HZ2 LYS     5      63.436  40.369  44.476  1.00 99.99     0.275 HD
ATOM     64  HZ1 LYS     5      63.283  40.048  42.880  1.00 99.99     0.275 HD
ENDBRANCH  60  61
ENDBRANCH  59  60
ENDBRANCH  58  59
ENDBRANCH  57  58
ENDBRANCH  27  57
ENDBRANCH  24  27
ENDBRANCH  22  23
BRANCH  22  65
ATOM     65  CB  LEU     4      59.326  42.938  47.492  1.00  0.00     0.032 C 
BRANCH  65  66
ATOM     66  CG  LEU     4      58.448  44.069  46.942  1.00  0.00     0.002 C 
ATOM     67  CD2 LEU     4      57.022  43.995  47.496  1.00  0.00     0.000 C 
ATOM     68  CD1 LEU     4      58.416  43.977  45.416  1.00  0.00     0.000 C 
ENDBRANCH  65  66
ENDBRANCH  22  65
ENDBRANCH  20  22
ENDBRANCH  16  18
ENDBRANCH  14  16
ENDBRANCH  11  12
BRANCH  11  69
ATOM     69  CB  PHE     2      54.976  40.963  48.984  1.00  0.00     0.056 C 
BRANCH  69  70
ATOM     70  CG  PHE     2      55.759  41.731  50.054  1.00  0.00    -0.044 A 
ATOM     71  CD1 PHE     2      55.096  42.587  50.928  1.00  0.00     0.008 A 
ATOM     72  CE1 PHE     2      55.792  43.192  51.967  1.00  0.00     0.001 A 
ATOM     73  CZ  PHE     2      57.147  42.937  52.139  1.00  0.00     0.000 A 
ATOM     74  CE2 PHE     2      57.812  42.095  51.256  1.00  0.00     0.001 A 
ATOM     75  CD2 PHE     2      57.118  41.494  50.213  1.00  0.00     0.008 A 
ENDBRANCH  69  70
ENDBRANCH  11  69
ENDBRANCH   8  11
ENDBRANCH   5   7
ENDBRANCH   1   5
TORSDOF 33
ENDMDL
MODEL 5
REMARK VINA RESULT:      -4.6      2.264      6.675
REMARK WARNING: 32 MAX_TORS EXCEEDED!!!
REMARK  33 active torsions:
REMARK  status: ('A' for Active; 'I' for Inactive)
REMARK    1  A    between atoms: N_1  and  CA_2 
REMARK    2  A    between atoms: CA_2  and  C_3 
REMARK       I    between atoms: C_3  and  N_9 
REMARK    3  A    between atoms: N_9  and  CA_10 
REMARK    4  A    between atoms: CA_10  and  C_11 
REMARK    5  A    between atoms: CA_10  and  CB_13 
REMARK       I    between atoms: C_11  and  N_21 
REMARK    6  A    between atoms: CB_13  and  CG_14 
REMARK    7  A    between atoms: N_21  and  CA_22 
REMARK    8  A    between atoms: CA_22  and  C_23 
REMARK       I    between atoms: C_23  and  N_27 
REMARK    9  A    between atoms: N_27  and  CA_28 
REMARK   10  A    between atoms: CA_28  and  C_29 
REMARK   11  A    between atoms: CA_28  and  CB_31 
REMARK       I    between atoms: C_29  and  N_36 
REMARK   12  A    between atoms: CB_31  and  CG_32 
REMARK   13  A    between atoms: N_36  and  CA_37 
REMARK   14  A    between atoms: CA_37  and  C_38 
REMARK   15  A    between atoms: CA_37  and  CB_40 
REMARK       I    between atoms: C_38  and  N_49 
REMARK   16  A    between atoms: CB_40  and  CG_41 
REMARK   17  A    between atoms: CG_41  and  CD_42 
REMARK   18  A    between atoms: CD_42  and  CE_43 
REMARK   19  A    between atoms: CE_43  and  NZ_44 
REMARK   20  A    between atoms: N_49  and  CA_50 
REMARK   21  A    between atoms: CA_50  and  CB_53 
REMARK   22  A    between atoms: CA_50  and  C_51 
REMARK       I    between atoms: C_51  and  N_62 
REMARK   23  A    between atoms: CB_53  and  CG_54 
REMARK   24  A    between atoms: CG_54  and  CD_55 
REMARK   25  A    between atoms: CD_55  and  CE_56 
REMARK   26  A    between atoms: CE_56  and  NZ_57 
REMARK   27  A    between atoms: N_62  and  CA_63 
REMARK   28  A    between atoms: CA_63  and  C_64 
REMARK   29  A    between atoms: CA_63  and  CB_66 
REMARK   30  A    between atoms: CB_66  and  CG_67 
REMARK   31  A    between atoms: CG_67  and  CD_68 
REMARK   32  A    between atoms: CD_68  and  CE_69 
REMARK   33  A    between atoms: CE_69  and  NZ_70 
ROOT
ATOM      1  N   ALA     1      57.283  40.595  52.313  1.00  0.00    -0.058 N 
ATOM      2  H1  ALA     1      58.023  40.243  52.883  1.00 99.99     0.276 HD
ATOM      3  H2  ALA     1      56.455  40.686  52.845  1.00 99.99     0.276 HD
ATOM      4  H3  ALA     1      57.062  39.919  51.616  1.00 99.99     0.276 HD
ENDROOT
BRANCH   1   5
ATOM      5  CA  ALA     1      57.693  41.886  51.708  1.00  0.00     0.255 C 
ATOM      6  CB  ALA     1      56.610  42.955  51.932  1.00  0.00     0.042 C 
BRANCH   5   7
ATOM      7  C   ALA     1      59.110  42.350  52.135  1.00  0.00     0.259 C 
ATOM      8  N   PHE     2      60.103  42.287  51.236  1.00  0.00    -0.337 N 
ATOM      9  H   PHE     2      59.954  41.933  50.314  1.00 99.99     0.164 HD
ATOM     10  O   ALA     1      59.208  43.033  53.154  1.00  0.00    -0.271 OA
BRANCH   8  11
ATOM     11  CA  PHE     2      61.525  42.577  51.544  1.00  0.00     0.164 C 
BRANCH  11  12
ATOM     12  C   PHE     2      62.218  43.642  50.667  1.00  0.00     0.251 C 
ATOM     13  O   PHE     2      62.151  44.821  51.002  1.00  0.00    -0.271 OA
ATOM     14  N   ALA     3      62.759  43.236  49.513  1.00  0.00    -0.338 N 
ATOM     15  H   ALA     3      62.903  42.269  49.322  1.00 99.99     0.164 HD
BRANCH  14  16
ATOM     16  CA  ALA     3      63.349  44.154  48.509  1.00  0.00     0.159 C 
ATOM     17  CB  ALA     3      64.767  44.542  48.949  1.00  0.00     0.034 C 
BRANCH  16  18
ATOM     18  C   ALA     3      63.342  43.562  47.083  1.00  0.00     0.251 C 
ATOM     19  O   ALA     3      64.364  43.634  46.407  1.00  0.00    -0.271 OA
ATOM     20  N   LEU     4      62.137  43.300  46.573  1.00  0.00    -0.338 N 
ATOM     21  H   LEU     4      61.330  43.373  47.152  1.00 99.99     0.164 HD
BRANCH  20  22
ATOM     22  CA  LEU     4      61.818  42.794  45.216  1.00  0.00     0.159 C 
BRANCH  22  23
ATOM     23  C   LEU     4      60.345  42.879  44.755  1.00  0.00     0.251 C 
ATOM     24  N   LYS     5      60.055  42.321  43.581  1.00  0.00    -0.338 N 
ATOM     25  H   LYS     5      60.773  41.970  42.981  1.00 99.99     0.164 HD
ATOM     26  O   LEU     4      59.550  43.582  45.374  1.00  0.00    -0.271 OA
BRANCH  24  27
ATOM     27  CA  LYS     5      58.690  42.217  43.022  1.00  0.00     0.159 C 
BRANCH  27  28
ATOM     28  C   LYS     5      57.879  40.993  43.505  1.00  0.00     0.251 C 
ATOM     29  O   LYS     5      57.663  40.053  42.743  1.00  0.00    -0.271 OA
ATOM     30  N   LYS     6      57.551  40.972  44.797  1.00  0.00    -0.338 N 
ATOM     31  H   LYS     6      57.853  41.706  45.407  1.00 99.99     0.164 HD
BRANCH  30  32
ATOM     32  CA  LYS     6      56.831  39.863  45.464  1.00  0.00     0.159 C 
BRANCH  32  33
ATOM     33  CB  LYS     6      57.708  39.370  46.621  1.00  0.00     0.032 C 
BRANCH  33  34
ATOM     34  CG  LYS     6      59.049  40.106  46.656  1.00  0.00     0.004 C 
BRANCH  34  35
ATOM     35  CD  LYS     6      59.284  40.851  47.969  1.00  0.00     0.032 C 
BRANCH  35  36
ATOM     36  CE  LYS     6      58.160  41.872  48.154  1.00  0.00     0.206 C 
BRANCH  36  37
ATOM     37  NZ  LYS     6      58.658  43.253  48.099  1.00  0.00    -0.064 N 
ATOM     38  HZ1 LYS     6      59.655  43.240  48.171  1.00 99.99     0.275 HD
ATOM     39  HZ2 LYS     6      58.391  43.664  47.229  1.00 99.99     0.275 HD
ATOM     40  HZ3 LYS     6      58.273  43.776  48.858  1.00 99.99     0.275 HD
ENDBRANCH  36  37
ENDBRANCH  35  36
ENDBRANCH  34  35
ENDBRANCH  33  34
ENDBRANCH  32  33
BRANCH  32  41
ATOM     41  C   LYS     6      55.419  40.246  45.968  1.00  0.00     0.251 C 
ATOM     42  N   LYS     7      55.178  39.954  47.244  1.00  0.00    -0.336 N 
ATOM     43  H   LYS     7      55.883  39.514  47.805  1.00 99.99     0.164 HD
ATOM     44  O   LYS     6      54.541  40.613  45.192  1.00  0.00    -0.271 OA
BRANCH  42  45
ATOM     45  CA  LYS     7      53.937  40.254  47.992  1.00  0.00     0.168 C 
BRANCH  45  46
ATOM     46  C   LYS     7      54.309  41.076  49.237  1.00  0.00     0.206 C 
ATOM     47  O   LYS     7      53.977  42.279  49.281  1.00 99.99    -0.646 OA
ATOM     48  OXT LYS     7      54.930  40.443  50.124  1.00 99.99    -0.646 OA
ENDBRANCH  45  46
BRANCH  45  49
ATOM     49  CB  LYS     7      53.299  38.973  48.537  1.00  0.00     0.033 C 
BRANCH  49  50
ATOM     50  CG  LYS     7      51.907  39.075  49.157  1.00  0.00     0.004 C 
BRANCH  50  51
ATOM     51  CD  LYS     7      51.935  38.154  50.376  1.00  0.00     0.032 C 
BRANCH  51  52
ATOM     52  CE  LYS     7      52.135  38.883  51.702  1.00  0.00     0.206 C 
BRANCH  52  53
ATOM     53  NZ  LYS     7      51.200  40.015  51.746  1.00  0.00    -0.064 N 
ATOM     54  HZ1 LYS     7      50.581  39.913  52.523  1.00 99.99     0.275 HD
ATOM     55  HZ2 LYS     7      51.713  40.868  51.829  1.00 99.99     0.275 HD
ATOM     56  HZ3 LYS     7      50.671  40.030  50.897  1.00 99.99     0.275 HD
ENDBRANCH  52  53
ENDBRANCH  51  52
ENDBRANCH  50  51
ENDBRANCH  49  50
ENDBRANCH  45  49
ENDBRANCH  42  45
ENDBRANCH  32  41
ENDBRANCH  30  32
ENDBRANCH  27  28
BRANCH  27  57
ATOM     57  CB  LYS     5      58.762  42.175  41.491  1.00  0.00     0.032 C 
BRANCH  57  58
ATOM     58  CG  LYS     5      59.894  43.020  40.905  1.00  0.00     0.004 C 
BRANCH  58  59
ATOM     59  CD  LYS     5      59.289  44.074  39.976  1.00  0.00     0.032 C 
BRANCH  59  60
ATOM     60  CE  LYS     5      59.832  43.957  38.551  1.00  0.00     0.206 C 
BRANCH  60  61
ATOM     61  NZ  LYS     5      58.739  43.672  37.610  1.00  0.00    -0.064 N 
ATOM     62  HZ3 LYS     5      59.006  42.910  37.018  1.00 99.99     0.275 HD
ATOM     63  HZ2 LYS     5      58.557  44.479  37.049  1.00 99.99     0.275 HD
ATOM     64  HZ1 LYS     5      57.916  43.420  38.118  1.00 99.99     0.275 HD
ENDBRANCH  60  61
ENDBRANCH  59  60
ENDBRANCH  58  59
ENDBRANCH  57  58
ENDBRANCH  27  57
ENDBRANCH  24  27
ENDBRANCH  22  23
BRANCH  22  65
ATOM     65  CB  LEU     4      62.254  41.324  45.139  1.00  0.00     0.032 C 
BRANCH  65  66
ATOM     66  CG  LEU     4      63.308  41.013  44.069  1.00  0.00     0.002 C 
ATOM     67  CD2 LEU     4      64.571  40.402  44.683  1.00  0.00     0.000 C 
ATOM     68  CD1 LEU     4      63.664  42.304  43.331  1.00  0.00     0.000 C 
ENDBRANCH  65  66
ENDBRANCH  22  65
ENDBRANCH  20  22
ENDBRANCH  16  18
ENDBRANCH  14  16
ENDBRANCH  11  12
BRANCH  11  69
ATOM     69  CB  PHE     2      62.307  41.257  51.553  1.00  0.00     0.056 C 
BRANCH  69  70
ATOM     70  CG  PHE     2      62.972  40.964  52.901  1.00  0.00    -0.044 A 
ATOM     71  CD1 PHE     2      62.589  41.666  54.038  1.00  0.00     0.008 A 
ATOM     72  CE1 PHE     2      63.112  41.319  55.278  1.00  0.00     0.001 A 
ATOM     73  CZ  PHE     2      64.013  40.265  55.382  1.00  0.00     0.000 A 
ATOM     74  CE2 PHE     2      64.408  39.575  54.242  1.00  0.00     0.001 A 
ATOM     75  CD2 PHE     2      63.889  39.926  53.003  1.00  0.00     0.008 A 
ENDBRANCH  69  70
ENDBRANCH  11  69
ENDBRANCH   8  11
ENDBRANCH   5   7
ENDBRANCH   1   5
TORSDOF 33
ENDMDL
MODEL 6
REMARK VINA RESULT:      -4.6      2.539      5.446
REMARK WARNING: 32 MAX_TORS EXCEEDED!!!
REMARK  33 active torsions:
REMARK  status: ('A' for Active; 'I' for Inactive)
REMARK    1  A    between atoms: N_1  and  CA_2 
REMARK    2  A    between atoms: CA_2  and  C_3 
REMARK       I    between atoms: C_3  and  N_9 
REMARK    3  A    between atoms: N_9  and  CA_10 
REMARK    4  A    between atoms: CA_10  and  C_11 
REMARK    5  A    between atoms: CA_10  and  CB_13 
REMARK       I    between atoms: C_11  and  N_21 
REMARK    6  A    between atoms: CB_13  and  CG_14 
REMARK    7  A    between atoms: N_21  and  CA_22 
REMARK    8  A    between atoms: CA_22  and  C_23 
REMARK       I    between atoms: C_23  and  N_27 
REMARK    9  A    between atoms: N_27  and  CA_28 
REMARK   10  A    between atoms: CA_28  and  C_29 
REMARK   11  A    between atoms: CA_28  and  CB_31 
REMARK       I    between atoms: C_29  and  N_36 
REMARK   12  A    between atoms: CB_31  and  CG_32 
REMARK   13  A    between atoms: N_36  and  CA_37 
REMARK   14  A    between atoms: CA_37  and  C_38 
REMARK   15  A    between atoms: CA_37  and  CB_40 
REMARK       I    between atoms: C_38  and  N_49 
REMARK   16  A    between atoms: CB_40  and  CG_41 
REMARK   17  A    between atoms: CG_41  and  CD_42 
REMARK   18  A    between atoms: CD_42  and  CE_43 
REMARK   19  A    between atoms: CE_43  and  NZ_44 
REMARK   20  A    between atoms: N_49  and  CA_50 
REMARK   21  A    between atoms: CA_50  and  CB_53 
REMARK   22  A    between atoms: CA_50  and  C_51 
REMARK       I    between atoms: C_51  and  N_62 
REMARK   23  A    between atoms: CB_53  and  CG_54 
REMARK   24  A    between atoms: CG_54  and  CD_55 
REMARK   25  A    between atoms: CD_55  and  CE_56 
REMARK   26  A    between atoms: CE_56  and  NZ_57 
REMARK   27  A    between atoms: N_62  and  CA_63 
REMARK   28  A    between atoms: CA_63  and  C_64 
REMARK   29  A    between atoms: CA_63  and  CB_66 
REMARK   30  A    between atoms: CB_66  and  CG_67 
REMARK   31  A    between atoms: CG_67  and  CD_68 
REMARK   32  A    between atoms: CD_68  and  CE_69 
REMARK   33  A    between atoms: CE_69  and  NZ_70 
ROOT
ATOM      1  N   ALA     1      51.949  39.459  52.348  1.00  0.00    -0.058 N 
ATOM      2  H1  ALA     1      51.017  39.602  52.674  1.00 99.99     0.276 HD
ATOM      3  H2  ALA     1      52.399  40.327  52.205  1.00 99.99     0.276 HD
ATOM      4  H3  ALA     1      51.914  39.042  51.444  1.00 99.99     0.276 HD
ENDROOT
BRANCH   1   5
ATOM      5  CA  ALA     1      52.688  38.608  53.311  1.00  0.00     0.255 C 
ATOM      6  CB  ALA     1      52.963  37.221  52.706  1.00  0.00     0.042 C 
BRANCH   5   7
ATOM      7  C   ALA     1      53.956  39.284  53.893  1.00  0.00     0.259 C 
ATOM      8  N   PHE     2      55.116  38.612  53.855  1.00  0.00    -0.337 N 
ATOM      9  H   PHE     2      55.175  37.688  53.480  1.00 99.99     0.164 HD
ATOM     10  O   ALA     1      53.924  40.499  54.082  1.00  0.00    -0.271 OA
BRANCH   8  11
ATOM     11  CA  PHE     2      56.374  39.083  54.486  1.00  0.00     0.164 C 
BRANCH  11  12
ATOM     12  C   PHE     2      57.639  39.064  53.602  1.00  0.00     0.251 C 
ATOM     13  O   PHE     2      58.736  38.940  54.138  1.00  0.00    -0.271 OA
ATOM     14  N   ALA     3      57.483  39.305  52.295  1.00  0.00    -0.338 N 
ATOM     15  H   ALA     3      56.583  39.286  51.870  1.00 99.99     0.164 HD
BRANCH  14  16
ATOM     16  CA  ALA     3      58.609  39.442  51.341  1.00  0.00     0.159 C 
ATOM     17  CB  ALA     3      58.077  39.315  49.907  1.00  0.00     0.034 C 
BRANCH  16  18
ATOM     18  C   ALA     3      59.401  40.754  51.535  1.00  0.00     0.251 C 
ATOM     19  O   ALA     3      59.028  41.763  50.944  1.00  0.00    -0.271 OA
ATOM     20  N   LEU     4      60.612  40.621  52.076  1.00  0.00    -0.338 N 
ATOM     21  H   LEU     4      60.899  39.737  52.436  1.00 99.99     0.164 HD
BRANCH  20  22
ATOM     22  CA  LEU     4      61.617  41.684  52.321  1.00  0.00     0.159 C 
BRANCH  22  23
ATOM     23  C   LEU     4      61.647  42.873  51.335  1.00  0.00     0.251 C 
ATOM     24  N   LYS     5      61.822  42.577  50.049  1.00  0.00    -0.338 N 
ATOM     25  H   LYS     5      62.039  41.647  49.755  1.00 99.99     0.164 HD
ATOM     26  O   LEU     4      61.682  44.024  51.765  1.00  0.00    -0.271 OA
BRANCH  24  27
ATOM     27  CA  LYS     5      61.781  43.567  48.951  1.00  0.00     0.159 C 
BRANCH  27  28
ATOM     28  C   LYS     5      60.622  43.379  47.946  1.00  0.00     0.251 C 
ATOM     29  O   LYS     5      60.859  43.228  46.750  1.00  0.00    -0.271 OA
ATOM     30  N   LYS     6      59.399  43.267  48.465  1.00  0.00    -0.338 N 
ATOM     31  H   LYS     6      59.269  43.277  49.458  1.00 99.99     0.164 HD
BRANCH  30  32
ATOM     32  CA  LYS     6      58.170  43.021  47.677  1.00  0.00     0.159 C 
BRANCH  32  33
ATOM     33  CB  LYS     6      58.117  41.522  47.355  1.00  0.00     0.032 C 
BRANCH  33  34
ATOM     34  CG  LYS     6      57.832  41.281  45.871  1.00  0.00     0.004 C 
BRANCH  34  35
ATOM     35  CD  LYS     6      56.475  40.625  45.626  1.00  0.00     0.032 C 
BRANCH  35  36
ATOM     36  CE  LYS     6      56.689  39.376  44.769  1.00  0.00     0.206 C 
BRANCH  36  37
ATOM     37  NZ  LYS     6      56.526  39.658  43.338  1.00  0.00    -0.064 N 
ATOM     38  HZ1 LYS     6      57.262  39.206  42.834  1.00 99.99     0.275 HD
ATOM     39  HZ2 LYS     6      55.644  39.304  43.031  1.00 99.99     0.275 HD
ATOM     40  HZ3 LYS     6      56.571  40.644  43.184  1.00 99.99     0.275 HD
ENDBRANCH  36  37
ENDBRANCH  35  36
ENDBRANCH  34  35
ENDBRANCH  33  34
ENDBRANCH  32  33
BRANCH  32  41
ATOM     41  C   LYS     6      56.871  43.479  48.382  1.00  0.00     0.251 C 
ATOM     42  N   LYS     7      56.345  42.594  49.226  1.00  0.00    -0.336 N 
ATOM     43  H   LYS     7      56.786  41.704  49.366  1.00 99.99     0.164 HD
ATOM     44  O   LYS     6      56.282  44.499  48.036  1.00  0.00    -0.271 OA
BRANCH  42  45
ATOM     45  CA  LYS     7      55.142  42.790  50.064  1.00  0.00     0.168 C 
BRANCH  45  46
ATOM     46  C   LYS     7      55.594  42.992  51.520  1.00  0.00     0.206 C 
ATOM     47  O   LYS     7      56.071  42.019  52.139  1.00 99.99    -0.646 OA
ATOM     48  OXT LYS     7      55.436  44.153  51.967  1.00 99.99    -0.646 OA
ENDBRANCH  45  46
BRANCH  45  49
ATOM     49  CB  LYS     7      54.277  41.526  50.088  1.00  0.00     0.033 C 
BRANCH  49  50
ATOM     50  CG  LYS     7      54.714  40.344  49.227  1.00  0.00     0.004 C 
BRANCH  50  51
ATOM     51  CD  LYS     7      53.613  40.171  48.181  1.00  0.00     0.032 C 
BRANCH  51  52
ATOM     52  CE  LYS     7      52.452  39.293  48.640  1.00  0.00     0.206 C 
BRANCH  52  53
ATOM     53  NZ  LYS     7      51.362  40.172  49.083  1.00  0.00    -0.064 N 
ATOM     54  HZ1 LYS     7      51.562  41.116  48.823  1.00 99.99     0.275 HD
ATOM     55  HZ2 LYS     7      50.504  39.878  48.663  1.00 99.99     0.275 HD
ATOM     56  HZ3 LYS     7      51.280  40.109  50.078  1.00 99.99     0.275 HD
ENDBRANCH  52  53
ENDBRANCH  51  52
ENDBRANCH  50  51
ENDBRANCH  49  50
ENDBRANCH  45  49
ENDBRANCH  42  45
ENDBRANCH  32  41
ENDBRANCH  30  32
ENDBRANCH  27  28
BRANCH  27  57
ATOM     57  CB  LYS     5      63.103  43.534  48.176  1.00  0.00     0.032 C 
BRANCH  57  58
ATOM     58  CG  LYS     5      64.339  43.705  49.060  1.00  0.00     0.004 C 
BRANCH  58  59
ATOM     59  CD  LYS     5      65.086  44.965  48.620  1.00  0.00     0.032 C 
BRANCH  59  60
ATOM     60  CE  LYS     5      64.884  46.121  49.600  1.00  0.00     0.206 C 
BRANCH  60  61
ATOM     61  NZ  LYS     5      65.602  47.316  49.136  1.00  0.00    -0.064 N 
ATOM     62  HZ3 LYS     5      66.320  47.544  49.796  1.00 99.99     0.275 HD
ATOM     63  HZ2 LYS     5      64.967  48.083  49.058  1.00 99.99     0.275 HD
ATOM     64  HZ1 LYS     5      66.021  47.132  48.247  1.00 99.99     0.275 HD
ENDBRANCH  60  61
ENDBRANCH  59  60
ENDBRANCH  58  59
ENDBRANCH  57  58
ENDBRANCH  27  57
ENDBRANCH  24  27
ENDBRANCH  22  23
BRANCH  22  65
ATOM     65  CB  LEU     4      63.009  41.035  52.323  1.00  0.00     0.032 C 
BRANCH  65  66
ATOM     66  CG  LEU     4      63.581  40.727  53.712  1.00  0.00     0.002 C 
ATOM     67  CD2 LEU     4      63.548  39.226  54.014  1.00  0.00     0.000 C 
ATOM     68  CD1 LEU     4      62.770  41.484  54.764  1.00  0.00     0.000 C 
ENDBRANCH  65  66
ENDBRANCH  22  65
ENDBRANCH  20  22
ENDBRANCH  16  18
ENDBRANCH  14  16
ENDBRANCH  11  12
BRANCH  11  69
ATOM     69  CB  PHE     2      56.587  38.313  55.795  1.00  0.00     0.056 C 
BRANCH  69  70
ATOM     70  CG  PHE     2      56.073  39.067  57.025  1.00  0.00    -0.044 A 
ATOM     71  CD1 PHE     2      55.856  40.439  56.965  1.00  0.00     0.008 A 
ATOM     72  CE1 PHE     2      55.282  41.098  58.046  1.00  0.00     0.001 A 
ATOM     73  CZ  PHE     2      54.918  40.386  59.182  1.00  0.00     0.000 A 
ATOM     74  CE2 PHE     2      55.150  39.017  59.247  1.00  0.00     0.001 A 
ATOM     75  CD2 PHE     2      55.729  38.359  58.169  1.00  0.00     0.008 A 
ENDBRANCH  69  70
ENDBRANCH  11  69
ENDBRANCH   8  11
ENDBRANCH   5   7
ENDBRANCH   1   5
TORSDOF 33
ENDMDL
MODEL 7
REMARK VINA RESULT:      -4.5      2.857      8.187
REMARK WARNING: 32 MAX_TORS EXCEEDED!!!
REMARK  33 active torsions:
REMARK  status: ('A' for Active; 'I' for Inactive)
REMARK    1  A    between atoms: N_1  and  CA_2 
REMARK    2  A    between atoms: CA_2  and  C_3 
REMARK       I    between atoms: C_3  and  N_9 
REMARK    3  A    between atoms: N_9  and  CA_10 
REMARK    4  A    between atoms: CA_10  and  C_11 
REMARK    5  A    between atoms: CA_10  and  CB_13 
REMARK       I    between atoms: C_11  and  N_21 
REMARK    6  A    between atoms: CB_13  and  CG_14 
REMARK    7  A    between atoms: N_21  and  CA_22 
REMARK    8  A    between atoms: CA_22  and  C_23 
REMARK       I    between atoms: C_23  and  N_27 
REMARK    9  A    between atoms: N_27  and  CA_28 
REMARK   10  A    between atoms: CA_28  and  C_29 
REMARK   11  A    between atoms: CA_28  and  CB_31 
REMARK       I    between atoms: C_29  and  N_36 
REMARK   12  A    between atoms: CB_31  and  CG_32 
REMARK   13  A    between atoms: N_36  and  CA_37 
REMARK   14  A    between atoms: CA_37  and  C_38 
REMARK   15  A    between atoms: CA_37  and  CB_40 
REMARK       I    between atoms: C_38  and  N_49 
REMARK   16  A    between atoms: CB_40  and  CG_41 
REMARK   17  A    between atoms: CG_41  and  CD_42 
REMARK   18  A    between atoms: CD_42  and  CE_43 
REMARK   19  A    between atoms: CE_43  and  NZ_44 
REMARK   20  A    between atoms: N_49  and  CA_50 
REMARK   21  A    between atoms: CA_50  and  CB_53 
REMARK   22  A    between atoms: CA_50  and  C_51 
REMARK       I    between atoms: C_51  and  N_62 
REMARK   23  A    between atoms: CB_53  and  CG_54 
REMARK   24  A    between atoms: CG_54  and  CD_55 
REMARK   25  A    between atoms: CD_55  and  CE_56 
REMARK   26  A    between atoms: CE_56  and  NZ_57 
REMARK   27  A    between atoms: N_62  and  CA_63 
REMARK   28  A    between atoms: CA_63  and  C_64 
REMARK   29  A    between atoms: CA_63  and  CB_66 
REMARK   30  A    between atoms: CB_66  and  CG_67 
REMARK   31  A    between atoms: CG_67  and  CD_68 
REMARK   32  A    between atoms: CD_68  and  CE_69 
REMARK   33  A    between atoms: CE_69  and  NZ_70 
ROOT
ATOM      1  N   ALA     1      70.079  41.145  46.949  1.00  0.00    -0.058 N 
ATOM      2  H1  ALA     1      70.705  40.822  47.657  1.00 99.99     0.276 HD
ATOM      3  H2  ALA     1      69.176  40.770  47.093  1.00 99.99     0.276 HD
ATOM      4  H3  ALA     1      70.367  40.776  46.070  1.00 99.99     0.276 HD
ENDROOT
BRANCH   1   5
ATOM      5  CA  ALA     1      70.064  42.628  46.938  1.00  0.00     0.255 C 
ATOM      6  CB  ALA     1      71.120  43.171  45.961  1.00  0.00     0.042 C 
BRANCH   5   7
ATOM      7  C   ALA     1      68.653  43.233  46.714  1.00  0.00     0.259 C 
ATOM      8  N   PHE     2      67.768  43.185  47.721  1.00  0.00    -0.337 N 
ATOM      9  H   PHE     2      67.991  42.757  48.595  1.00 99.99     0.164 HD
ATOM     10  O   ALA     1      68.499  43.992  45.759  1.00  0.00    -0.271 OA
BRANCH   8  11
ATOM     11  CA  PHE     2      66.351  43.609  47.605  1.00  0.00     0.164 C 
BRANCH  11  12
ATOM     12  C   PHE     2      65.820  44.549  48.708  1.00  0.00     0.251 C 
ATOM     13  O   PHE     2      66.623  45.198  49.372  1.00  0.00    -0.271 OA
ATOM     14  N   ALA     3      64.508  44.521  48.966  1.00  0.00    -0.338 N 
ATOM     15  H   ALA     3      63.869  44.080  48.343  1.00 99.99     0.164 HD
BRANCH  14  16
ATOM     16  CA  ALA     3      63.867  45.271  50.073  1.00  0.00     0.159 C 
ATOM     17  CB  ALA     3      63.429  46.650  49.563  1.00  0.00     0.034 C 
BRANCH  16  18
ATOM     18  C   ALA     3      62.687  44.503  50.709  1.00  0.00     0.251 C 
ATOM     19  O   ALA     3      62.187  44.938  51.742  1.00  0.00    -0.271 OA
ATOM     20  N   LEU     4      62.506  43.257  50.269  1.00  0.00    -0.338 N 
ATOM     21  H   LEU     4      63.033  42.926  49.491  1.00 99.99     0.164 HD
BRANCH  20  22
ATOM     22  CA  LEU     4      61.506  42.267  50.737  1.00  0.00     0.159 C 
BRANCH  22  23
ATOM     23  C   LEU     4      60.138  42.246  50.018  1.00  0.00     0.251 C 
ATOM     24  N   LYS     5      60.141  42.547  48.721  1.00  0.00    -0.338 N 
ATOM     25  H   LYS     5      60.967  42.881  48.267  1.00 99.99     0.164 HD
ATOM     26  O   LEU     4      59.104  42.129  50.672  1.00  0.00    -0.271 OA
BRANCH  24  27
ATOM     27  CA  LYS     5      58.950  42.484  47.847  1.00  0.00     0.159 C 
BRANCH  27  28
ATOM     28  C   LYS     5      59.169  41.765  46.497  1.00  0.00     0.251 C 
ATOM     29  O   LYS     5      59.507  40.584  46.472  1.00  0.00    -0.271 OA
ATOM     30  N   LYS     6      58.853  42.454  45.400  1.00  0.00    -0.338 N 
ATOM     31  H   LYS     6      58.468  43.375  45.475  1.00 99.99     0.164 HD
BRANCH  30  32
ATOM     32  CA  LYS     6      58.933  41.923  44.020  1.00  0.00     0.159 C 
BRANCH  32  33
ATOM     33  CB  LYS     6      57.513  41.537  43.588  1.00  0.00     0.032 C 
BRANCH  33  34
ATOM     34  CG  LYS     6      57.226  40.062  43.874  1.00  0.00     0.004 C 
BRANCH  34  35
ATOM     35  CD  LYS     6      56.242  39.860  45.025  1.00  0.00     0.032 C 
BRANCH  35  36
ATOM     36  CE  LYS     6      55.078  39.005  44.522  1.00  0.00     0.206 C 
BRANCH  36  37
ATOM     37  NZ  LYS     6      55.183  38.723  43.085  1.00  0.00    -0.064 N 
ATOM     38  HZ1 LYS     6      55.853  39.347  42.682  1.00 99.99     0.275 HD
ATOM     39  HZ2 LYS     6      55.484  37.780  42.957  1.00 99.99     0.275 HD
ATOM     40  HZ3 LYS     6      54.293  38.862  42.652  1.00 99.99     0.275 HD
ENDBRANCH  36  37
ENDBRANCH  35  36
ENDBRANCH  34  35
ENDBRANCH  33  34
ENDBRANCH  32  33
BRANCH  32  41
ATOM     41  C   LYS     6      59.569  42.903  43.006  1.00  0.00     0.251 C 
ATOM     42  N   LYS     7      59.872  42.374  41.823  1.00  0.00    -0.336 N 
ATOM     43  H   LYS     7      59.690  41.405  41.641  1.00 99.99     0.164 HD
ATOM     44  O   LYS     6      59.934  44.026  43.346  1.00  0.00    -0.271 OA
BRANCH  42  45
ATOM     45  CA  LYS     7      60.440  43.092  40.661  1.00  0.00     0.168 C 
BRANCH  45  46
ATOM     46  C   LYS     7      59.294  43.802  39.923  1.00  0.00     0.206 C 
ATOM     47  O   LYS     7      58.609  43.145  39.110  1.00 99.99    -0.646 OA
ATOM     48  OXT LYS     7      59.146  45.013  40.212  1.00 99.99    -0.646 OA
ENDBRANCH  45  46
BRANCH  45  49
ATOM     49  CB  LYS     7      61.025  42.112  39.640  1.00  0.00     0.033 C 
BRANCH  49  50
ATOM     50  CG  LYS     7      61.149  40.645  40.048  1.00  0.00     0.004 C 
BRANCH  50  51
ATOM     51  CD  LYS     7      60.163  39.890  39.158  1.00  0.00     0.032 C 
BRANCH  51  52
ATOM     52  CE  LYS     7      60.130  40.376  37.712  1.00  0.00     0.206 C 
BRANCH  52  53
ATOM     53  NZ  LYS     7      58.729  40.611  37.341  1.00  0.00    -0.064 N 
ATOM     54  HZ1 LYS     7      58.218  40.939  38.136  1.00 99.99     0.275 HD
ATOM     55  HZ2 LYS     7      58.687  41.288  36.608  1.00 99.99     0.275 HD
ATOM     56  HZ3 LYS     7      58.330  39.752  37.020  1.00 99.99     0.275 HD
ENDBRANCH  52  53
ENDBRANCH  51  52
ENDBRANCH  50  51
ENDBRANCH  49  50
ENDBRANCH  45  49
ENDBRANCH  42  45
ENDBRANCH  32  41
ENDBRANCH  30  32
ENDBRANCH  27  28
BRANCH  27  57
ATOM     57  CB  LYS     5      58.444  43.903  47.562  1.00  0.00     0.032 C 
BRANCH  57  58
ATOM     58  CG  LYS     5      56.947  44.084  47.809  1.00  0.00     0.004 C 
BRANCH  58  59
ATOM     59  CD  LYS     5      56.431  42.882  48.603  1.00  0.00     0.032 C 
BRANCH  59  60
ATOM     60  CE  LYS     5      55.617  43.312  49.824  1.00  0.00     0.206 C 
BRANCH  60  61
ATOM     61  NZ  LYS     5      56.217  42.774  51.053  1.00  0.00    -0.064 N 
ATOM     62  HZ3 LYS     5      56.082  41.782  51.077  1.00 99.99     0.275 HD
ATOM     63  HZ2 LYS     5      55.779  43.186  51.851  1.00 99.99     0.275 HD
ATOM     64  HZ1 LYS     5      57.196  42.973  51.063  1.00 99.99     0.275 HD
ENDBRANCH  60  61
ENDBRANCH  59  60
ENDBRANCH  58  59
ENDBRANCH  57  58
ENDBRANCH  27  57
ENDBRANCH  24  27
ENDBRANCH  22  23
BRANCH  22  65
ATOM     65  CB  LEU     4      61.253  42.513  52.231  1.00  0.00     0.032 C 
BRANCH  65  66
ATOM     66  CG  LEU     4      61.514  41.307  53.142  1.00  0.00     0.002 C 
ATOM     67  CD2 LEU     4      60.236  40.849  53.850  1.00  0.00     0.000 C 
ATOM     68  CD1 LEU     4      62.572  41.687  54.179  1.00  0.00     0.000 C 
ENDBRANCH  65  66
ENDBRANCH  22  65
ENDBRANCH  20  22
ENDBRANCH  16  18
ENDBRANCH  14  16
ENDBRANCH  11  12
BRANCH  11  69
ATOM     69  CB  PHE     2      65.474  42.360  47.457  1.00  0.00     0.056 C 
BRANCH  69  70
ATOM     70  CG  PHE     2      64.684  42.335  46.145  1.00  0.00    -0.044 A 
ATOM     71  CD1 PHE     2      63.294  42.293  46.164  1.00  0.00     0.008 A 
ATOM     72  CE1 PHE     2      62.580  42.387  44.976  1.00  0.00     0.001 A 
ATOM     73  CZ  PHE     2      63.254  42.528  43.769  1.00  0.00     0.000 A 
ATOM     74  CE2 PHE     2      64.643  42.554  43.749  1.00  0.00     0.001 A 
ATOM     75  CD2 PHE     2      65.357  42.455  44.936  1.00  0.00     0.008 A 
ENDBRANCH  69  70
ENDBRANCH  11  69
ENDBRANCH   8  11
ENDBRANCH   5   7
ENDBRANCH   1   5
TORSDOF 33
ENDMDL
MODEL 8
REMARK VINA RESULT:      -4.5      2.813      7.702
REMARK WARNING: 32 MAX_TORS EXCEEDED!!!
REMARK  33 active torsions:
REMARK  status: ('A' for Active; 'I' for Inactive)
REMARK    1  A    between atoms: N_1  and  CA_2 
REMARK    2  A    between atoms: CA_2  and  C_3 
REMARK       I    between atoms: C_3  and  N_9 
REMARK    3  A    between atoms: N_9  and  CA_10 
REMARK    4  A    between atoms: CA_10  and  C_11 
REMARK    5  A    between atoms: CA_10  and  CB_13 
REMARK       I    between atoms: C_11  and  N_21 
REMARK    6  A    between atoms: CB_13  and  CG_14 
REMARK    7  A    between atoms: N_21  and  CA_22 
REMARK    8  A    between atoms: CA_22  and  C_23 
REMARK       I    between atoms: C_23  and  N_27 
REMARK    9  A    between atoms: N_27  and  CA_28 
REMARK   10  A    between atoms: CA_28  and  C_29 
REMARK   11  A    between atoms: CA_28  and  CB_31 
REMARK       I    between atoms: C_29  and  N_36 
REMARK   12  A    between atoms: CB_31  and  CG_32 
REMARK   13  A    between atoms: N_36  and  CA_37 
REMARK   14  A    between atoms: CA_37  and  C_38 
REMARK   15  A    between atoms: CA_37  and  CB_40 
REMARK       I    between atoms: C_38  and  N_49 
REMARK   16  A    between atoms: CB_40  and  CG_41 
REMARK   17  A    between atoms: CG_41  and  CD_42 
REMARK   18  A    between atoms: CD_42  and  CE_43 
REMARK   19  A    between atoms: CE_43  and  NZ_44 
REMARK   20  A    between atoms: N_49  and  CA_50 
REMARK   21  A    between atoms: CA_50  and  CB_53 
REMARK   22  A    between atoms: CA_50  and  C_51 
REMARK       I    between atoms: C_51  and  N_62 
REMARK   23  A    between atoms: CB_53  and  CG_54 
REMARK   24  A    between atoms: CG_54  and  CD_55 
REMARK   25  A    between atoms: CD_55  and  CE_56 
REMARK   26  A    between atoms: CE_56  and  NZ_57 
REMARK   27  A    between atoms: N_62  and  CA_63 
REMARK   28  A    between atoms: CA_63  and  C_64 
REMARK   29  A    between atoms: CA_63  and  CB_66 
REMARK   30  A    between atoms: CB_66  and  CG_67 
REMARK   31  A    between atoms: CG_67  and  CD_68 
REMARK   32  A    between atoms: CD_68  and  CE_69 
REMARK   33  A    between atoms: CE_69  and  NZ_70 
ROOT
ATOM      1  N   ALA     1      53.904  39.179  47.204  1.00  0.00    -0.058 N 
ATOM      2  H1  ALA     1      53.495  38.451  46.658  1.00 99.99     0.276 HD
ATOM      3  H2  ALA     1      53.973  38.902  48.150  1.00 99.99     0.276 HD
ATOM      4  H3  ALA     1      53.286  39.960  47.216  1.00 99.99     0.276 HD
ENDROOT
BRANCH   1   5
ATOM      5  CA  ALA     1      55.226  39.541  46.639  1.00  0.00     0.255 C 
ATOM      6  CB  ALA     1      55.060  40.234  45.276  1.00  0.00     0.042 C 
BRANCH   5   7
ATOM      7  C   ALA     1      56.127  40.332  47.623  1.00  0.00     0.259 C 
ATOM      8  N   PHE     2      56.168  41.669  47.521  1.00  0.00    -0.337 N 
ATOM      9  H   PHE     2      55.649  42.158  46.820  1.00 99.99     0.164 HD
ATOM     10  O   ALA     1      56.522  39.753  48.633  1.00  0.00    -0.271 OA
BRANCH   8  11
ATOM     11  CA  PHE     2      57.077  42.538  48.307  1.00  0.00     0.164 C 
BRANCH  11  12
ATOM     12  C   PHE     2      56.624  42.895  49.739  1.00  0.00     0.251 C 
ATOM     13  O   PHE     2      55.875  43.853  49.903  1.00  0.00    -0.271 OA
ATOM     14  N   ALA     3      57.168  42.208  50.750  1.00  0.00    -0.338 N 
ATOM     15  H   ALA     3      57.676  41.367  50.587  1.00 99.99     0.164 HD
BRANCH  14  16
ATOM     16  CA  ALA     3      56.929  42.513  52.180  1.00  0.00     0.159 C 
ATOM     17  CB  ALA     3      55.720  41.707  52.674  1.00  0.00     0.034 C 
BRANCH  16  18
ATOM     18  C   ALA     3      58.173  42.263  53.060  1.00  0.00     0.251 C 
ATOM     19  O   ALA     3      59.026  43.141  53.141  1.00  0.00    -0.271 OA
ATOM     20  N   LEU     4      58.384  40.994  53.412  1.00  0.00    -0.338 N 
ATOM     21  H   LEU     4      57.693  40.304  53.211  1.00 99.99     0.164 HD
BRANCH  20  22
ATOM     22  CA  LEU     4      59.521  40.446  54.191  1.00  0.00     0.159 C 
BRANCH  22  23
ATOM     23  C   LEU     4      60.863  40.256  53.449  1.00  0.00     0.251 C 
ATOM     24  N   LYS     5      61.568  41.358  53.201  1.00  0.00    -0.338 N 
ATOM     25  H   LYS     5      61.193  42.267  53.382  1.00 99.99     0.164 HD
ATOM     26  O   LEU     4      61.149  39.160  52.972  1.00  0.00    -0.271 OA
BRANCH  24  27
ATOM     27  CA  LYS     5      62.915  41.367  52.592  1.00  0.00     0.159 C 
BRANCH  27  28
ATOM     28  C   LYS     5      62.934  41.390  51.047  1.00  0.00     0.251 C 
ATOM     29  O   LYS     5      62.508  40.430  50.408  1.00  0.00    -0.271 OA
ATOM     30  N   LYS     6      63.311  42.534  50.476  1.00  0.00    -0.338 N 
ATOM     31  H   LYS     6      63.535  43.331  51.040  1.00 99.99     0.164 HD
BRANCH  30  32
ATOM     32  CA  LYS     6      63.336  42.777  49.015  1.00  0.00     0.159 C 
BRANCH  32  33
ATOM     33  CB  LYS     6      63.170  44.285  48.792  1.00  0.00     0.032 C 
BRANCH  33  34
ATOM     34  CG  LYS     6      62.741  44.994  50.079  1.00  0.00     0.004 C 
BRANCH  34  35
ATOM     35  CD  LYS     6      63.708  46.098  50.500  1.00  0.00     0.032 C 
BRANCH  35  36
ATOM     36  CE  LYS     6      64.932  46.045  49.585  1.00  0.00     0.206 C 
BRANCH  36  37
ATOM     37  NZ  LYS     6      66.127  46.603  50.232  1.00  0.00    -0.064 N 
ATOM     38  HZ1 LYS     6      66.846  46.708  49.546  1.00 99.99     0.275 HD
ATOM     39  HZ2 LYS     6      65.903  47.494  50.622  1.00 99.99     0.275 HD
ATOM     40  HZ3 LYS     6      66.437  45.982  50.951  1.00 99.99     0.275 HD
ENDBRANCH  36  37
ENDBRANCH  35  36
ENDBRANCH  34  35
ENDBRANCH  33  34
ENDBRANCH  32  33
BRANCH  32  41
ATOM     41  C   LYS     6      64.614  42.255  48.315  1.00  0.00     0.251 C 
ATOM     42  N   LYS     7      65.125  43.068  47.395  1.00  0.00    -0.336 N 
ATOM     43  H   LYS     7      64.685  43.947  47.194  1.00 99.99     0.164 HD
ATOM     44  O   LYS     6      65.000  41.099  48.471  1.00  0.00    -0.271 OA
BRANCH  42  45
ATOM     45  CA  LYS     7      66.362  42.842  46.615  1.00  0.00     0.168 C 
BRANCH  45  46
ATOM     46  C   LYS     7      67.046  44.199  46.385  1.00  0.00     0.206 C 
ATOM     47  O   LYS     7      66.336  45.225  46.329  1.00 99.99    -0.646 OA
ATOM     48  OXT LYS     7      68.294  44.151  46.270  1.00 99.99    -0.646 OA
ENDBRANCH  45  46
BRANCH  45  49
ATOM     49  CB  LYS     7      66.039  42.316  45.212  1.00  0.00     0.033 C 
BRANCH  49  50
ATOM     50  CG  LYS     7      66.571  40.938  44.825  1.00  0.00     0.004 C 
BRANCH  50  51
ATOM     51  CD  LYS     7      65.485  39.949  45.246  1.00  0.00     0.032 C 
BRANCH  51  52
ATOM     52  CE  LYS     7      64.063  40.459  45.036  1.00  0.00     0.206 C 
BRANCH  52  53
ATOM     53  NZ  LYS     7      63.211  39.882  46.085  1.00  0.00    -0.064 N 
ATOM     54  HZ1 LYS     7      62.260  40.150  45.934  1.00 99.99     0.275 HD
ATOM     55  HZ2 LYS     7      63.291  38.887  46.070  1.00 99.99     0.275 HD
ATOM     56  HZ3 LYS     7      63.517  40.225  46.974  1.00 99.99     0.275 HD
ENDBRANCH  52  53
ENDBRANCH  51  52
ENDBRANCH  50  51
ENDBRANCH  49  50
ENDBRANCH  45  49
ENDBRANCH  42  45
ENDBRANCH  32  41
ENDBRANCH  30  32
ENDBRANCH  27  28
BRANCH  27  57
ATOM     57  CB  LYS     5      63.703  40.140  53.066  1.00  0.00     0.032 C 
BRANCH  57  58
ATOM     58  CG  LYS     5      64.388  40.334  54.419  1.00  0.00     0.004 C 
BRANCH  58  59
ATOM     59  CD  LYS     5      63.931  39.221  55.364  1.00  0.00     0.032 C 
BRANCH  59  60
ATOM     60  CE  LYS     5      64.781  39.166  56.634  1.00  0.00     0.206 C 
BRANCH  60  61
ATOM     61  NZ  LYS     5      64.139  39.933  57.712  1.00  0.00    -0.064 N 
ATOM     62  HZ3 LYS     5      63.773  40.785  57.335  1.00 99.99     0.275 HD
ATOM     63  HZ2 LYS     5      64.810  40.145  58.421  1.00 99.99     0.275 HD
ATOM     64  HZ1 LYS     5      63.390  39.399  58.104  1.00 99.99     0.275 HD
ENDBRANCH  60  61
ENDBRANCH  59  60
ENDBRANCH  58  59
ENDBRANCH  57  58
ENDBRANCH  27  57
ENDBRANCH  24  27
ENDBRANCH  22  23
BRANCH  22  65
ATOM     65  CB  LEU     4      59.098  39.085  54.762  1.00  0.00     0.032 C 
BRANCH  65  66
ATOM     66  CG  LEU     4      59.044  39.010  56.293  1.00  0.00     0.002 C 
ATOM     67  CD2 LEU     4      57.955  39.922  56.864  1.00  0.00     0.000 C 
ATOM     68  CD1 LEU     4      60.406  39.414  56.859  1.00  0.00     0.000 C 
ENDBRANCH  65  66
ENDBRANCH  22  65
ENDBRANCH  20  22
ENDBRANCH  16  18
ENDBRANCH  14  16
ENDBRANCH  11  12
BRANCH  11  69
ATOM     69  CB  PHE     2      57.392  43.794  47.485  1.00  0.00     0.056 C 
BRANCH  69  70
ATOM     70  CG  PHE     2      58.610  43.622  46.572  1.00  0.00    -0.044 A 
ATOM     71  CD1 PHE     2      59.801  43.115  47.081  1.00  0.00     0.008 A 
ATOM     72  CE1 PHE     2      60.865  42.854  46.226  1.00  0.00     0.001 A 
ATOM     73  CZ  PHE     2      60.737  43.092  44.863  1.00  0.00     0.000 A 
ATOM     74  CE2 PHE     2      59.552  43.613  44.358  1.00  0.00     0.001 A 
ATOM     75  CD2 PHE     2      58.491  43.880  45.213  1.00  0.00     0.008 A 
ENDBRANCH  69  70
ENDBRANCH  11  69
ENDBRANCH   8  11
ENDBRANCH   5   7
ENDBRANCH   1   5
TORSDOF 33
ENDMDL
MODEL 9
REMARK VINA RESULT:      -4.4      2.577      4.418
REMARK WARNING: 32 MAX_TORS EXCEEDED!!!
REMARK  33 active torsions:
REMARK  status: ('A' for Active; 'I' for Inactive)
REMARK    1  A    between atoms: N_1  and  CA_2 
REMARK    2  A    between atoms: CA_2  and  C_3 
REMARK       I    between atoms: C_3  and  N_9 
REMARK    3  A    between atoms: N_9  and  CA_10 
REMARK    4  A    between atoms: CA_10  and  C_11 
REMARK    5  A    between atoms: CA_10  and  CB_13 
REMARK       I    between atoms: C_11  and  N_21 
REMARK    6  A    between atoms: CB_13  and  CG_14 
REMARK    7  A    between atoms: N_21  and  CA_22 
REMARK    8  A    between atoms: CA_22  and  C_23 
REMARK       I    between atoms: C_23  and  N_27 
REMARK    9  A    between atoms: N_27  and  CA_28 
REMARK   10  A    between atoms: CA_28  and  C_29 
REMARK   11  A    between atoms: CA_28  and  CB_31 
REMARK       I    between atoms: C_29  and  N_36 
REMARK   12  A    between atoms: CB_31  and  CG_32 
REMARK   13  A    between atoms: N_36  and  CA_37 
REMARK   14  A    between atoms: CA_37  and  C_38 
REMARK   15  A    between atoms: CA_37  and  CB_40 
REMARK       I    between atoms: C_38  and  N_49 
REMARK   16  A    between atoms: CB_40  and  CG_41 
REMARK   17  A    between atoms: CG_41  and  CD_42 
REMARK   18  A    between atoms: CD_42  and  CE_43 
REMARK   19  A    between atoms: CE_43  and  NZ_44 
REMARK   20  A    between atoms: N_49  and  CA_50 
REMARK   21  A    between atoms: CA_50  and  CB_53 
REMARK   22  A    between atoms: CA_50  and  C_51 
REMARK       I    between atoms: C_51  and  N_62 
REMARK   23  A    between atoms: CB_53  and  CG_54 
REMARK   24  A    between atoms: CG_54  and  CD_55 
REMARK   25  A    between atoms: CD_55  and  CE_56 
REMARK   26  A    between atoms: CE_56  and  NZ_57 
REMARK   27  A    between atoms: N_62  and  CA_63 
REMARK   28  A    between atoms: CA_63  and  C_64 
REMARK   29  A    between atoms: CA_63  and  CB_66 
REMARK   30  A    between atoms: CB_66  and  CG_67 
REMARK   31  A    between atoms: CG_67  and  CD_68 
REMARK   32  A    between atoms: CD_68  and  CE_69 
REMARK   33  A    between atoms: CE_69  and  NZ_70 
ROOT
ATOM      1  N   ALA     1      65.374  39.963  50.550  1.00  0.00    -0.058 N 
ATOM      2  H1  ALA     1      65.253  40.827  51.034  1.00 99.99     0.276 HD
ATOM      3  H2  ALA     1      65.871  39.321  51.113  1.00 99.99     0.276 HD
ATOM      4  H3  ALA     1      65.964  40.114  49.762  1.00 99.99     0.276 HD
ENDROOT
BRANCH   1   5
ATOM      5  CA  ALA     1      64.051  39.430  50.144  1.00  0.00     0.255 C 
ATOM      6  CB  ALA     1      63.634  38.266  51.059  1.00  0.00     0.042 C 
BRANCH   5   7
ATOM      7  C   ALA     1      62.958  40.521  50.005  1.00  0.00     0.259 C 
ATOM      8  N   PHE     2      62.308  40.922  51.107  1.00  0.00    -0.337 N 
ATOM      9  H   PHE     2      62.500  40.523  52.003  1.00 99.99     0.164 HD
ATOM     10  O   ALA     1      62.939  41.187  48.971  1.00  0.00    -0.271 OA
BRANCH   8  11
ATOM     11  CA  PHE     2      61.158  41.860  51.103  1.00  0.00     0.164 C 
BRANCH  11  12
ATOM     12  C   PHE     2      61.366  43.201  50.369  1.00  0.00     0.251 C 
ATOM     13  O   PHE     2      60.698  43.439  49.367  1.00  0.00    -0.271 OA
ATOM     14  N   ALA     3      62.355  43.994  50.796  1.00  0.00    -0.338 N 
ATOM     15  H   ALA     3      62.799  43.837  51.673  1.00 99.99     0.164 HD
BRANCH  14  16
ATOM     16  CA  ALA     3      62.756  45.252  50.121  1.00  0.00     0.159 C 
ATOM     17  CB  ALA     3      63.146  46.292  51.180  1.00  0.00     0.034 C 
BRANCH  16  18
ATOM     18  C   ALA     3      63.889  45.042  49.093  1.00  0.00     0.251 C 
ATOM     19  O   ALA     3      64.733  45.921  48.954  1.00  0.00    -0.271 OA
ATOM     20  N   LEU     4      63.688  44.065  48.206  1.00  0.00    -0.338 N 
ATOM     21  H   LEU     4      62.909  43.453  48.314  1.00 99.99     0.164 HD
BRANCH  20  22
ATOM     22  CA  LEU     4      64.560  43.678  47.071  1.00  0.00     0.159 C 
BRANCH  22  23
ATOM     23  C   LEU     4      63.877  43.067  45.827  1.00  0.00     0.251 C 
ATOM     24  N   LYS     5      62.809  42.303  46.048  1.00  0.00    -0.338 N 
ATOM     25  H   LYS     5      62.537  42.047  46.975  1.00 99.99     0.164 HD
ATOM     26  O   LEU     4      64.418  43.155  44.727  1.00  0.00    -0.271 OA
BRANCH  24  27
ATOM     27  CA  LYS     5      61.969  41.715  44.983  1.00  0.00     0.159 C 
BRANCH  27  28
ATOM     28  C   LYS     5      60.566  42.345  44.836  1.00  0.00     0.251 C 
ATOM     29  O   LYS     5      60.442  43.562  44.718  1.00  0.00    -0.271 OA
ATOM     30  N   LYS     6      59.543  41.497  44.722  1.00  0.00    -0.338 N 
ATOM     31  H   LYS     6      59.707  40.509  44.705  1.00 99.99     0.164 HD
BRANCH  30  32
ATOM     32  CA  LYS     6      58.134  41.900  44.513  1.00  0.00     0.159 C 
BRANCH  32  33
ATOM     33  CB  LYS     6      57.654  41.250  43.210  1.00  0.00     0.032 C 
BRANCH  33  34
ATOM     34  CG  LYS     6      58.542  41.647  42.029  1.00  0.00     0.004 C 
BRANCH  34  35
ATOM     35  CD  LYS     6      57.938  41.272  40.678  1.00  0.00     0.032 C 
BRANCH  35  36
ATOM     36  CE  LYS     6      57.752  39.754  40.635  1.00  0.00     0.206 C 
BRANCH  36  37
ATOM     37  NZ  LYS     6      56.340  39.377  40.501  1.00  0.00    -0.064 N 
ATOM     38  HZ1 LYS     6      55.776  40.069  40.954  1.00 99.99     0.275 HD
ATOM     39  HZ2 LYS     6      56.102  39.333  39.533  1.00 99.99     0.275 HD
ATOM     40  HZ3 LYS     6      56.189  38.488  40.932  1.00 99.99     0.275 HD
ENDBRANCH  36  37
ENDBRANCH  35  36
ENDBRANCH  34  35
ENDBRANCH  33  34
ENDBRANCH  32  33
BRANCH  32  41
ATOM     41  C   LYS     6      57.196  41.535  45.688  1.00  0.00     0.251 C 
ATOM     42  N   LYS     7      57.341  42.283  46.780  1.00  0.00    -0.336 N 
ATOM     43  H   LYS     7      58.022  43.019  46.803  1.00 99.99     0.164 HD
ATOM     44  O   LYS     6      56.515  40.513  45.667  1.00  0.00    -0.271 OA
BRANCH  42  45
ATOM     45  CA  LYS     7      56.545  42.183  48.022  1.00  0.00     0.168 C 
BRANCH  45  46
ATOM     46  C   LYS     7      56.335  43.600  48.579  1.00  0.00     0.206 C 
ATOM     47  O   LYS     7      56.448  44.571  47.801  1.00 99.99    -0.646 OA
ATOM     48  OXT LYS     7      56.062  43.655  49.802  1.00 99.99    -0.646 OA
ENDBRANCH  45  46
BRANCH  45  49
ATOM     49  CB  LYS     7      57.319  41.437  49.114  1.00  0.00     0.033 C 
BRANCH  49  50
ATOM     50  CG  LYS     7      56.877  40.017  49.459  1.00  0.00     0.004 C 
BRANCH  50  51
ATOM     51  CD  LYS     7      55.356  40.015  49.312  1.00  0.00     0.032 C 
BRANCH  51  52
ATOM     52  CE  LYS     7      54.823  38.933  48.377  1.00  0.00     0.206 C 
BRANCH  52  53
ATOM     53  NZ  LYS     7      54.095  39.592  47.285  1.00  0.00    -0.064 N 
ATOM     54  HZ1 LYS     7      54.429  40.527  47.171  1.00 99.99     0.275 HD
ATOM     55  HZ2 LYS     7      54.228  39.078  46.438  1.00 99.99     0.275 HD
ATOM     56  HZ3 LYS     7      53.121  39.610  47.510  1.00 99.99     0.275 HD
ENDBRANCH  52  53
ENDBRANCH  51  52
ENDBRANCH  50  51
ENDBRANCH  49  50
ENDBRANCH  45  49
ENDBRANCH  42  45
ENDBRANCH  32  41
ENDBRANCH  30  32
ENDBRANCH  27  28
BRANCH  27  57
ATOM     57  CB  LYS     5      61.800  40.212  45.231  1.00  0.00     0.032 C 
BRANCH  57  58
ATOM     58  CG  LYS     5      63.013  39.557  45.890  1.00  0.00     0.004 C 
BRANCH  58  59
ATOM     59  CD  LYS     5      62.538  38.357  46.712  1.00  0.00     0.032 C 
BRANCH  59  60
ATOM     60  CE  LYS     5      61.144  38.584  47.299  1.00  0.00     0.206 C 
BRANCH  60  61
ATOM     61  NZ  LYS     5      60.322  37.375  47.144  1.00  0.00    -0.064 N 
ATOM     62  HZ3 LYS     5      60.317  37.103  46.180  1.00 99.99     0.275 HD
ATOM     63  HZ2 LYS     5      59.386  37.563  47.439  1.00 99.99     0.275 HD
ATOM     64  HZ1 LYS     5      60.708  36.635  47.692  1.00 99.99     0.275 HD
ENDBRANCH  60  61
ENDBRANCH  59  60
ENDBRANCH  58  59
ENDBRANCH  57  58
ENDBRANCH  27  57
ENDBRANCH  24  27
ENDBRANCH  22  23
BRANCH  22  65
ATOM     65  CB  LEU     4      65.596  42.669  47.587  1.00  0.00     0.032 C 
BRANCH  65  66
ATOM     66  CG  LEU     4      67.034  43.197  47.669  1.00  0.00     0.002 C 
ATOM     67  CD2 LEU     4      67.296  44.283  46.621  1.00  0.00     0.000 C 
ATOM     68  CD1 LEU     4      68.004  42.033  47.462  1.00  0.00     0.000 C 
ENDBRANCH  65  66
ENDBRANCH  22  65
ENDBRANCH  20  22
ENDBRANCH  16  18
ENDBRANCH  14  16
ENDBRANCH  11  12
BRANCH  11  69
ATOM     69  CB  PHE     2      60.690  42.073  52.548  1.00  0.00     0.056 C 
BRANCH  69  70
ATOM     70  CG  PHE     2      59.245  41.621  52.781  1.00  0.00    -0.044 A 
ATOM     71  CD1 PHE     2      58.198  42.527  52.648  1.00  0.00     0.008 A 
ATOM     72  CE1 PHE     2      56.883  42.088  52.748  1.00  0.00     0.001 A 
ATOM     73  CZ  PHE     2      56.614  40.743  52.975  1.00  0.00     0.000 A 
ATOM     74  CE2 PHE     2      57.661  39.842  53.124  1.00  0.00     0.001 A 
ATOM     75  CD2 PHE     2      58.976  40.282  53.029  1.00  0.00     0.008 A 
ENDBRANCH  69  70
ENDBRANCH  11  69
ENDBRANCH   8  11
ENDBRANCH   5   7
ENDBRANCH   1   5
TORSDOF 33
ENDMDL
