MODEL 1
REMARK VINA RESULT:      -5.0      0.000      0.000
REMARK WARNING: 32 MAX_TORS EXCEEDED!!!
REMARK  42 active torsions:
REMARK  status: ('A' for Active; 'I' for Inactive)
REMARK    1  A    between atoms: N_1  and  CA_2 
REMARK    2  A    between atoms: CA_2  and  C_3 
REMARK    3  A    between atoms: CA_2  and  CB_5 
REMARK       I    between atoms: C_3  and  N_12 
REMARK    4  A    between atoms: CB_5  and  CG1_6 
REMARK    5  A    between atoms: N_12  and  CA_13 
REMARK    6  A    between atoms: CA_13  and  CB_16 
REMARK    7  A    between atoms: CA_13  and  C_14 
REMARK       I    between atoms: C_14  and  N_29 
REMARK    8  A    between atoms: CB_16  and  CG_17 
REMARK    9  A    between atoms: CG_17  and  CD_18 
REMARK   10  A    between atoms: CD_18  and  NE_19 
REMARK       I    between atoms: NE_19  and  CZ_20 
REMARK       I    between atoms: CZ_20  and  NH2_22 
REMARK       I    between atoms: CZ_20  and  NH1_21 
REMARK   11  A    between atoms: N_29  and  CA_30 
REMARK   12  A    between atoms: CA_30  and  CB_33 
REMARK   13  A    between atoms: CA_30  and  C_31 
REMARK       I    between atoms: C_31  and  N_38 
REMARK   14  A    between atoms: CB_33  and  CG1_34 
REMARK   15  A    between atoms: N_38  and  CA_39 
REMARK   16  A    between atoms: CA_39  and  CB_42 
REMARK   17  A    between atoms: CA_39  and  C_40 
REMARK       I    between atoms: C_40  and  N_51 
REMARK   18  A    between atoms: CB_42  and  CG_43 
REMARK   19  A    between atoms: CG_43  and  CD_44 
REMARK   20  A    between atoms: CD_44  and  CE_45 
REMARK   21  A    between atoms: CE_45  and  NZ_46 
REMARK   22  A    between atoms: N_51  and  CA_52 
REMARK   23  A    between atoms: CA_52  and  C_53 
REMARK   24  A    between atoms: CA_52  and  CB_55 
REMARK       I    between atoms: C_53  and  N_60 
REMARK   25  A    between atoms: CB_55  and  CG1_56 
REMARK   26  A    between atoms: N_60  and  CA_61 
REMARK   27  A    between atoms: CA_61  and  C_62 
REMARK   28  A    between atoms: CA_61  and  CB_64 
REMARK       I    between atoms: C_62  and  N_77 
REMARK   29  A    between atoms: CB_64  and  CG_65 
REMARK   30  A    between atoms: CG_65  and  CD_66 
REMARK   31  A    between atoms: CD_66  and  NE_67 
REMARK       I    between atoms: NE_67  and  CZ_68 
REMARK       I    between atoms: CZ_68  and  NH1_69 
REMARK   32  A    between atoms: N_77  and  CA_78 
REMARK   33  A    between atoms: CA_78  and  C_79 
REMARK   34  A    between atoms: CA_78  and  CB_81 
REMARK       I    between atoms: C_79  and  N_86 
REMARK   35  A    between atoms: CB_81  and  CG1_82 
REMARK   36  A    between atoms: N_86  and  CA_87 
REMARK   37  A    between atoms: CA_87  and  CB_90 
REMARK   38  A    between atoms: CA_87  and  C_88 
REMARK   39  A    between atoms: CB_90  and  CG_91 
REMARK   40  A    between atoms: CG_91  and  CD_92 
REMARK   41  A    between atoms: CD_92  and  CE_93 
REMARK   42  A    between atoms: CE_93  and  NZ_94 
ROOT
ATOM      1  N   ILE     1      59.434  44.646  40.268  1.00  0.00    -0.058 N 
ATOM      2  H1  ILE     1      59.232  45.027  39.363  1.00 99.99     0.276 HD
ATOM      3  H2  ILE     1      58.915  45.148  40.943  1.00 99.99     0.276 HD
ATOM      4  H3  ILE     1      60.382  44.813  40.492  1.00 99.99     0.276 HD
ENDROOT
BRANCH   1   5
ATOM      5  CA  ILE     1      59.080  43.204  40.243  1.00  0.00     0.255 C 
BRANCH   5   6
ATOM      6  C   ILE     1      59.663  42.532  41.516  1.00  0.00     0.259 C 
ATOM      7  O   ILE     1      60.635  41.769  41.412  1.00  0.00    -0.271 OA
ATOM      8  N   ARG     2      59.131  42.834  42.691  1.00  0.00    -0.338 N 
ATOM      9  H   ARG     2      58.369  43.477  42.801  1.00 99.99     0.164 HD
BRANCH   8  10
ATOM     10  CA  ARG     2      59.588  42.220  43.960  1.00  0.00     0.159 C 
BRANCH  10  11
ATOM     11  CB  ARG     2      60.375  43.260  44.767  1.00  0.00     0.034 C 
BRANCH  11  12
ATOM     12  CG  ARG     2      61.858  42.903  44.915  1.00  0.00     0.027 C 
BRANCH  12  13
ATOM     13  CD  ARG     2      62.039  41.389  45.017  1.00  0.00     0.116 C 
BRANCH  13  14
ATOM     14  NE  ARG     2      62.682  40.886  43.789  1.00  0.00    -0.212 N 
ATOM     15  HE  ARG     2      62.734  39.893  43.715  1.00 99.99     0.178 HD
ATOM     16  CZ  ARG     2      63.190  41.627  42.800  1.00  0.00     0.666 C 
ATOM     17  NH2 ARG     2      63.739  41.038  41.743  1.00  0.00    -0.235 N 
ATOM     18  NH1 ARG     2      63.172  42.952  42.829  1.00  0.00    -0.235 N 
ATOM     19 1HH2 ARG     2      64.117  41.601  41.011  1.00 99.99     0.174 HD
ATOM     20 2HH2 ARG     2      63.778  40.044  41.680  1.00 99.99     0.174 HD
ATOM     21 2HH1 ARG     2      62.765  43.410  43.618  1.00 99.99     0.174 HD
ATOM     22 1HH1 ARG     2      63.559  43.483  42.079  1.00 99.99     0.174 HD
ENDBRANCH  13  14
ENDBRANCH  12  13
ENDBRANCH  11  12
ENDBRANCH  10  11
BRANCH  10  23
ATOM     23  C   ARG     2      58.375  41.693  44.744  1.00  0.00     0.251 C 
ATOM     24  N   ILE     3      58.562  41.529  46.049  1.00  0.00    -0.338 N 
ATOM     25  H   ILE     3      59.428  41.762  46.495  1.00 99.99     0.164 HD
ATOM     26  O   ARG     2      57.352  41.330  44.159  1.00  0.00    -0.271 OA
BRANCH  24  27
ATOM     27  CA  ILE     3      57.514  40.990  46.942  1.00  0.00     0.159 C 
BRANCH  27  28
ATOM     28  CB  ILE     3      58.086  39.962  47.942  1.00  0.00     0.029 C 
ATOM     29  CG2 ILE     3      57.629  38.553  47.533  1.00  0.00     0.002 C 
BRANCH  28  30
ATOM     30  CG1 ILE     3      59.613  40.081  48.107  1.00  0.00     0.002 C 
ATOM     31  CD  ILE     3      60.311  38.767  48.480  1.00  0.00     0.000 C 
ENDBRANCH  28  30
ENDBRANCH  27  28
BRANCH  27  32
ATOM     32  C   ILE     3      56.700  42.074  47.667  1.00  0.00     0.251 C 
ATOM     33  O   ILE     3      56.584  43.207  47.181  1.00  0.00    -0.271 OA
ATOM     34  N   LYS     4      56.027  41.649  48.727  1.00  0.00    -0.338 N 
ATOM     35  H   LYS     4      55.875  40.670  48.875  1.00 99.99     0.164 HD
BRANCH  34  36
ATOM     36  CA  LYS     4      55.336  42.528  49.701  1.00  0.00     0.159 C 
BRANCH  36  37
ATOM     37  CB  LYS     4      53.845  42.151  49.786  1.00  0.00     0.032 C 
BRANCH  37  38
ATOM     38  CG  LYS     4      53.588  40.718  49.307  1.00  0.00     0.004 C 
BRANCH  38  39
ATOM     39  CD  LYS     4      53.148  39.796  50.446  1.00  0.00     0.032 C 
BRANCH  39  40
ATOM     40  CE  LYS     4      51.626  39.849  50.607  1.00  0.00     0.206 C 
BRANCH  40  41
ATOM     41  NZ  LYS     4      50.934  39.571  49.341  1.00  0.00    -0.064 N 
ATOM     42  HZ1 LYS     4      50.401  38.730  49.431  1.00 99.99     0.275 HD
ATOM     43  HZ3 LYS     4      51.607  39.461  48.608  1.00 99.99     0.275 HD
ATOM     44  HZ2 LYS     4      50.324  40.331  49.121  1.00 99.99     0.275 HD
ENDBRANCH  40  41
ENDBRANCH  39  40
ENDBRANCH  38  39
ENDBRANCH  37  38
ENDBRANCH  36  37
BRANCH  36  45
ATOM     45  C   LYS     4      56.048  42.440  51.067  1.00  0.00     0.251 C 
ATOM     46  O   LYS     4      55.642  43.029  52.071  1.00  0.00    -0.271 OA
ATOM     47  N   ILE     5      57.028  41.543  51.108  1.00  0.00    -0.338 N 
ATOM     48  H   ILE     5      57.324  41.063  50.284  1.00 99.99     0.164 HD
BRANCH  47  49
ATOM     49  CA  ILE     5      57.839  41.232  52.310  1.00  0.00     0.159 C 
BRANCH  49  50
ATOM     50  C   ILE     5      59.004  42.221  52.477  1.00  0.00     0.251 C 
ATOM     51  N   ARG     6      60.118  41.943  51.812  1.00  0.00    -0.338 N 
ATOM     52  H   ARG     6      60.219  41.109  51.266  1.00 99.99     0.164 HD
ATOM     53  O   ILE     5      58.872  43.221  53.192  1.00  0.00    -0.271 OA
BRANCH  51  54
ATOM     54  CA  ARG     6      61.299  42.832  51.790  1.00  0.00     0.159 C 
BRANCH  54  55
ATOM     55  C   ARG     6      61.642  43.233  50.351  1.00  0.00     0.251 C 
ATOM     56  N   ILE     7      62.819  43.817  50.213  1.00  0.00    -0.338 N 
ATOM     57  H   ILE     7      63.432  43.937  50.996  1.00 99.99     0.164 HD
ATOM     58  O   ARG     6      60.793  43.174  49.452  1.00  0.00    -0.271 OA
BRANCH  56  59
ATOM     59  CA  ILE     7      63.369  44.307  48.930  1.00  0.00     0.159 C 
BRANCH  59  60
ATOM     60  C   ILE     7      64.486  43.371  48.413  1.00  0.00     0.251 C 
ATOM     61  O   ILE     7      64.804  42.367  49.064  1.00  0.00    -0.271 OA
ATOM     62  N   LYS     8      64.912  43.605  47.175  1.00  0.00    -0.336 N 
ATOM     63  H   LYS     8      64.365  44.158  46.550  1.00 99.99     0.164 HD
BRANCH  62  64
ATOM     64  CA  LYS     8      66.158  43.051  46.576  1.00  0.00     0.168 C 
BRANCH  64  65
ATOM     65  CB  LYS     8      65.883  42.442  45.195  1.00  0.00     0.033 C 
BRANCH  65  66
ATOM     66  CG  LYS     8      66.176  40.985  44.790  1.00  0.00     0.004 C 
BRANCH  66  67
ATOM     67  CD  LYS     8      67.086  40.432  45.889  1.00  0.00     0.032 C 
BRANCH  67  68
ATOM     68  CE  LYS     8      66.480  39.259  46.663  1.00  0.00     0.206 C 
BRANCH  68  69
ATOM     69  NZ  LYS     8      65.040  39.481  46.866  1.00  0.00    -0.064 N 
ATOM     70  HZ1 LYS     8      64.571  38.600  46.904  1.00 99.99     0.275 HD
ATOM     71  HZ2 LYS     8      64.898  39.972  47.726  1.00 99.99     0.275 HD
ATOM     72  HZ3 LYS     8      64.673  40.024  46.110  1.00 99.99     0.275 HD
ENDBRANCH  68  69
ENDBRANCH  67  68
ENDBRANCH  66  67
ENDBRANCH  65  66
ENDBRANCH  64  65
BRANCH  64  73
ATOM     73  C   LYS     8      67.218  44.203  46.381  1.00  0.00     0.206 C 
ATOM     74  O   LYS     8      68.303  43.864  45.862  1.00 99.99    -0.646 OA
ATOM     75  OXT LYS     8      66.949  45.412  46.590  1.00 99.99    -0.646 OA
ENDBRANCH  64  73
ENDBRANCH  62  64
ENDBRANCH  59  60
BRANCH  59  76
ATOM     76  CB  ILE     7      63.817  45.772  49.160  1.00  0.00     0.029 C 
ATOM     77  CG2 ILE     7      62.624  46.706  49.446  1.00  0.00     0.002 C 
BRANCH  76  78
ATOM     78  CG1 ILE     7      64.920  45.863  50.228  1.00  0.00     0.002 C 
ATOM     79  CD  ILE     7      66.203  46.565  49.758  1.00  0.00     0.000 C 
ENDBRANCH  76  78
ENDBRANCH  59  76
ENDBRANCH  56  59
ENDBRANCH  54  55
BRANCH  54  80
ATOM     80  CB  ARG     6      62.521  42.161  52.423  1.00  0.00     0.034 C 
BRANCH  80  81
ATOM     81  CG  ARG     6      62.230  40.806  53.067  1.00  0.00     0.027 C 
BRANCH  81  82
ATOM     82  CD  ARG     6      62.824  39.724  52.170  1.00  0.00     0.116 C 
BRANCH  82  83
ATOM     83  NE  ARG     6      64.005  40.228  51.440  1.00  0.00    -0.212 N 
ATOM     84  HE  ARG     6      64.062  41.222  51.362  1.00 99.99     0.178 HD
ATOM     85  CZ  ARG     6      64.951  39.479  50.884  1.00  0.00     0.666 C 
ATOM     86  NH2 ARG     6      65.991  40.046  50.282  1.00  0.00    -0.235 N 
ATOM     87  NH1 ARG     6      64.919  38.149  50.930  1.00  0.00    -0.235 N 
ATOM     88 1HH2 ARG     6      66.693  39.471  49.872  1.00 99.99     0.174 HD
ATOM     89 2HH2 ARG     6      66.070  41.040  50.244  1.00 99.99     0.174 HD
ATOM     90 2HH1 ARG     6      64.154  37.706  51.398  1.00 99.99     0.174 HD
ATOM     91 1HH1 ARG     6      65.639  37.606  50.509  1.00 99.99     0.174 HD
ENDBRANCH  82  83
ENDBRANCH  81  82
ENDBRANCH  80  81
ENDBRANCH  54  80
ENDBRANCH  51  54
ENDBRANCH  49  50
BRANCH  49  92
ATOM     92  CB  ILE     5      58.349  39.773  52.291  1.00  0.00     0.029 C 
ATOM     93  CG2 ILE     5      58.509  39.262  53.733  1.00  0.00     0.002 C 
BRANCH  92  94
ATOM     94  CG1 ILE     5      57.483  38.853  51.407  1.00  0.00     0.002 C 
ATOM     95  CD  ILE     5      57.952  37.393  51.352  1.00  0.00     0.000 C 
ENDBRANCH  92  94
ENDBRANCH  49  92
ENDBRANCH  47  49
ENDBRANCH  36  45
ENDBRANCH  34  36
ENDBRANCH  27  32
ENDBRANCH  24  27
ENDBRANCH  10  23
ENDBRANCH   8  10
ENDBRANCH   5   6
BRANCH   5  96
ATOM     96  CB  ILE     1      59.621  42.542  38.946  1.00  0.00     0.037 C 
ATOM     97  CG2 ILE     1      58.710  41.399  38.461  1.00  0.00     0.002 C 
BRANCH  96  98
ATOM     98  CG1 ILE     1      59.803  43.585  37.827  1.00  0.00     0.002 C 
ATOM     99  CD  ILE     1      58.690  43.587  36.766  1.00  0.00     0.000 C 
ENDBRANCH  96  98
ENDBRANCH   5  96
ENDBRANCH   1   5
TORSDOF 42
ENDMDL
MODEL 2
REMARK VINA RESULT:      -5.0      1.661      2.227
REMARK WARNING: 32 MAX_TORS EXCEEDED!!!
REMARK  42 active torsions:
REMARK  status: ('A' for Active; 'I' for Inactive)
REMARK    1  A    between atoms: N_1  and  CA_2 
REMARK    2  A    between atoms: CA_2  and  C_3 
REMARK    3  A    between atoms: CA_2  and  CB_5 
REMARK       I    between atoms: C_3  and  N_12 
REMARK    4  A    between atoms: CB_5  and  CG1_6 
REMARK    5  A    between atoms: N_12  and  CA_13 
REMARK    6  A    between atoms: CA_13  and  CB_16 
REMARK    7  A    between atoms: CA_13  and  C_14 
REMARK       I    between atoms: C_14  and  N_29 
REMARK    8  A    between atoms: CB_16  and  CG_17 
REMARK    9  A    between atoms: CG_17  and  CD_18 
REMARK   10  A    between atoms: CD_18  and  NE_19 
REMARK       I    between atoms: NE_19  and  CZ_20 
REMARK       I    between atoms: CZ_20  and  NH2_22 
REMARK       I    between atoms: CZ_20  and  NH1_21 
REMARK   11  A    between atoms: N_29  and  CA_30 
REMARK   12  A    between atoms: CA_30  and  CB_33 
REMARK   13  A    between atoms: CA_30  and  C_31 
REMARK       I    between atoms: C_31  and  N_38 
REMARK   14  A    between atoms: CB_33  and  CG1_34 
REMARK   15  A    between atoms: N_38  and  CA_39 
REMARK   16  A    between atoms: CA_39  and  CB_42 
REMARK   17  A    between atoms: CA_39  and  C_40 
REMARK       I    between atoms: C_40  and  N_51 
REMARK   18  A    between atoms: CB_42  and  CG_43 
REMARK   19  A    between atoms: CG_43  and  CD_44 
REMARK   20  A    between atoms: CD_44  and  CE_45 
REMARK   21  A    between atoms: CE_45  and  NZ_46 
REMARK   22  A    between atoms: N_51  and  CA_52 
REMARK   23  A    between atoms: CA_52  and  C_53 
REMARK   24  A    between atoms: CA_52  and  CB_55 
REMARK       I    between atoms: C_53  and  N_60 
REMARK   25  A    between atoms: CB_55  and  CG1_56 
REMARK   26  A    between atoms: N_60  and  CA_61 
REMARK   27  A    between atoms: CA_61  and  C_62 
REMARK   28  A    between atoms: CA_61  and  CB_64 
REMARK       I    between atoms: C_62  and  N_77 
REMARK   29  A    between atoms: CB_64  and  CG_65 
REMARK   30  A    between atoms: CG_65  and  CD_66 
REMARK   31  A    between atoms: CD_66  and  NE_67 
REMARK       I    between atoms: NE_67  and  CZ_68 
REMARK       I    between atoms: CZ_68  and  NH1_69 
REMARK   32  A    between atoms: N_77  and  CA_78 
REMARK   33  A    between atoms: CA_78  and  C_79 
REMARK   34  A    between atoms: CA_78  and  CB_81 
REMARK       I    between atoms: C_79  and  N_86 
REMARK   35  A    between atoms: CB_81  and  CG1_82 
REMARK   36  A    between atoms: N_86  and  CA_87 
REMARK   37  A    between atoms: CA_87  and  CB_90 
REMARK   38  A    between atoms: CA_87  and  C_88 
REMARK   39  A    between atoms: CB_90  and  CG_91 
REMARK   40  A    between atoms: CG_91  and  CD_92 
REMARK   41  A    between atoms: CD_92  and  CE_93 
REMARK   42  A    between atoms: CE_93  and  NZ_94 
ROOT
ATOM      1  N   ILE     1      59.032  44.465  40.020  1.00  0.00    -0.058 N 
ATOM      2  H1  ILE     1      58.817  44.849  39.119  1.00 99.99     0.276 HD
ATOM      3  H2  ILE     1      58.427  44.873  40.688  1.00 99.99     0.276 HD
ATOM      4  H3  ILE     1      59.941  44.744  40.290  1.00 99.99     0.276 HD
ENDROOT
BRANCH   1   5
ATOM      5  CA  ILE     1      58.868  42.991  39.937  1.00  0.00     0.255 C 
BRANCH   5   6
ATOM      6  C   ILE     1      59.454  42.358  41.229  1.00  0.00     0.259 C 
ATOM      7  O   ILE     1      60.292  41.449  41.136  1.00  0.00    -0.271 OA
ATOM      8  N   ARG     2      59.073  42.844  42.401  1.00  0.00    -0.338 N 
ATOM      9  H   ARG     2      58.424  43.603  42.497  1.00 99.99     0.164 HD
BRANCH   8  10
ATOM     10  CA  ARG     2      59.541  42.286  43.691  1.00  0.00     0.159 C 
BRANCH  10  11
ATOM     11  CB  ARG     2      60.332  43.361  44.446  1.00  0.00     0.034 C 
BRANCH  11  12
ATOM     12  CG  ARG     2      61.735  42.896  44.853  1.00  0.00     0.027 C 
BRANCH  12  13
ATOM     13  CD  ARG     2      61.933  41.421  44.505  1.00  0.00     0.116 C 
BRANCH  13  14
ATOM     14  NE  ARG     2      63.293  41.220  43.970  1.00  0.00    -0.212 N 
ATOM     15  HE  ARG     2      63.442  41.574  43.050  1.00 99.99     0.178 HD
ATOM     16  CZ  ARG     2      64.309  40.617  44.595  1.00  0.00     0.666 C 
ATOM     17  NH2 ARG     2      65.488  40.509  43.994  1.00  0.00    -0.235 N 
ATOM     18  NH1 ARG     2      64.187  40.109  45.813  1.00  0.00    -0.235 N 
ATOM     19 1HH2 ARG     2      66.240  40.055  44.468  1.00 99.99     0.174 HD
ATOM     20 2HH2 ARG     2      65.624  40.873  43.076  1.00 99.99     0.174 HD
ATOM     21 2HH1 ARG     2      63.306  40.179  46.278  1.00 99.99     0.174 HD
ATOM     22 1HH1 ARG     2      64.961  39.662  46.258  1.00 99.99     0.174 HD
ENDBRANCH  13  14
ENDBRANCH  12  13
ENDBRANCH  11  12
ENDBRANCH  10  11
BRANCH  10  23
ATOM     23  C   ARG     2      58.336  41.790  44.507  1.00  0.00     0.251 C 
ATOM     24  N   ILE     3      58.513  41.746  45.823  1.00  0.00    -0.338 N 
ATOM     25  H   ILE     3      59.365  42.044  46.255  1.00 99.99     0.164 HD
ATOM     26  O   ARG     2      57.331  41.346  43.946  1.00  0.00    -0.271 OA
BRANCH  24  27
ATOM     27  CA  ILE     3      57.471  41.254  46.750  1.00  0.00     0.159 C 
BRANCH  27  28
ATOM     28  CB  ILE     3      58.019  40.171  47.704  1.00  0.00     0.029 C 
ATOM     29  CG2 ILE     3      57.780  38.785  47.085  1.00  0.00     0.002 C 
BRANCH  28  30
ATOM     30  CG1 ILE     3      59.489  40.415  48.097  1.00  0.00     0.002 C 
ATOM     31  CD  ILE     3      60.443  39.277  47.709  1.00  0.00     0.000 C 
ENDBRANCH  28  30
ENDBRANCH  27  28
BRANCH  27  32
ATOM     32  C   ILE     3      56.758  42.370  47.530  1.00  0.00     0.251 C 
ATOM     33  O   ILE     3      56.770  43.536  47.115  1.00  0.00    -0.271 OA
ATOM     34  N   LYS     4      56.021  41.952  48.549  1.00  0.00    -0.338 N 
ATOM     35  H   LYS     4      55.765  40.987  48.632  1.00 99.99     0.164 HD
BRANCH  34  36
ATOM     36  CA  LYS     4      55.402  42.836  49.566  1.00  0.00     0.159 C 
BRANCH  36  37
ATOM     37  CB  LYS     4      53.913  42.484  49.737  1.00  0.00     0.032 C 
BRANCH  37  38
ATOM     38  CG  LYS     4      53.624  41.025  49.366  1.00  0.00     0.004 C 
BRANCH  38  39
ATOM     39  CD  LYS     4      52.382  40.482  50.074  1.00  0.00     0.032 C 
BRANCH  39  40
ATOM     40  CE  LYS     4      51.935  39.170  49.423  1.00  0.00     0.206 C 
BRANCH  40  41
ATOM     41  NZ  LYS     4      50.513  39.202  49.054  1.00  0.00    -0.064 N 
ATOM     42  HZ1 LYS     4      50.180  40.144  49.094  1.00 99.99     0.275 HD
ATOM     43  HZ3 LYS     4      49.988  38.637  49.692  1.00 99.99     0.275 HD
ATOM     44  HZ2 LYS     4      50.401  38.849  48.126  1.00 99.99     0.275 HD
ENDBRANCH  40  41
ENDBRANCH  39  40
ENDBRANCH  38  39
ENDBRANCH  37  38
ENDBRANCH  36  37
BRANCH  36  45
ATOM     45  C   LYS     4      56.191  42.729  50.889  1.00  0.00     0.251 C 
ATOM     46  O   LYS     4      56.004  43.487  51.842  1.00  0.00    -0.271 OA
ATOM     47  N   ILE     5      56.959  41.647  50.972  1.00  0.00    -0.338 N 
ATOM     48  H   ILE     5      57.077  41.035  50.191  1.00 99.99     0.164 HD
BRANCH  47  49
ATOM     49  CA  ILE     5      57.783  41.284  52.150  1.00  0.00     0.159 C 
BRANCH  49  50
ATOM     50  C   ILE     5      58.995  42.218  52.301  1.00  0.00     0.251 C 
ATOM     51  N   ARG     6      60.041  41.962  51.526  1.00  0.00    -0.338 N 
ATOM     52  H   ARG     6      60.066  41.174  50.908  1.00 99.99     0.164 HD
ATOM     53  O   ILE     5      58.959  43.158  53.104  1.00  0.00    -0.271 OA
BRANCH  51  54
ATOM     54  CA  ARG     6      61.249  42.811  51.480  1.00  0.00     0.159 C 
BRANCH  54  55
ATOM     55  C   ARG     6      61.509  43.299  50.050  1.00  0.00     0.251 C 
ATOM     56  N   ILE     7      62.672  43.900  49.880  1.00  0.00    -0.338 N 
ATOM     57  H   ILE     7      63.329  43.979  50.633  1.00 99.99     0.164 HD
ATOM     58  O   ARG     6      60.610  43.285  49.198  1.00  0.00    -0.271 OA
BRANCH  56  59
ATOM     59  CA  ILE     7      63.146  44.469  48.600  1.00  0.00     0.159 C 
BRANCH  59  60
ATOM     60  C   ILE     7      64.002  43.443  47.820  1.00  0.00     0.251 C 
ATOM     61  O   ILE     7      63.575  42.297  47.632  1.00  0.00    -0.271 OA
ATOM     62  N   LYS     8      65.085  43.927  47.221  1.00  0.00    -0.336 N 
ATOM     63  H   LYS     8      65.179  44.909  47.066  1.00 99.99     0.164 HD
BRANCH  62  64
ATOM     64  CA  LYS     8      66.205  43.110  46.678  1.00  0.00     0.168 C 
BRANCH  64  65
ATOM     65  CB  LYS     8      67.440  43.979  46.404  1.00  0.00     0.033 C 
BRANCH  65  66
ATOM     66  CG  LYS     8      68.633  43.576  45.517  1.00  0.00     0.004 C 
BRANCH  66  67
ATOM     67  CD  LYS     8      69.617  42.869  46.453  1.00  0.00     0.032 C 
BRANCH  67  68
ATOM     68  CE  LYS     8      69.913  41.421  46.061  1.00  0.00     0.206 C 
BRANCH  68  69
ATOM     69  NZ  LYS     8      69.936  40.569  47.261  1.00  0.00    -0.064 N 
ATOM     70  HZ1 LYS     8      69.068  40.079  47.336  1.00 99.99     0.275 HD
ATOM     71  HZ2 LYS     8      70.686  39.911  47.186  1.00 99.99     0.275 HD
ATOM     72  HZ3 LYS     8      70.072  41.137  48.073  1.00 99.99     0.275 HD
ENDBRANCH  68  69
ENDBRANCH  67  68
ENDBRANCH  66  67
ENDBRANCH  65  66
ENDBRANCH  64  65
BRANCH  64  73
ATOM     73  C   LYS     8      66.627  42.011  47.729  1.00  0.00     0.206 C 
ATOM     74  O   LYS     8      66.706  40.843  47.295  1.00 99.99    -0.646 OA
ATOM     75  OXT LYS     8      67.006  42.298  48.892  1.00 99.99    -0.646 OA
ENDBRANCH  64  73
ENDBRANCH  62  64
ENDBRANCH  59  60
BRANCH  59  76
ATOM     76  CB  ILE     7      63.880  45.792  48.936  1.00  0.00     0.029 C 
ATOM     77  CG2 ILE     7      62.901  46.914  49.333  1.00  0.00     0.002 C 
BRANCH  76  78
ATOM     78  CG1 ILE     7      64.994  45.569  49.973  1.00  0.00     0.002 C 
ATOM     79  CD  ILE     7      66.274  46.376  49.715  1.00  0.00     0.000 C 
ENDBRANCH  76  78
ENDBRANCH  59  76
ENDBRANCH  56  59
ENDBRANCH  54  55
BRANCH  54  80
ATOM     80  CB  ARG     6      62.486  42.060  51.979  1.00  0.00     0.034 C 
BRANCH  80  81
ATOM     81  CG  ARG     6      62.741  42.198  53.480  1.00  0.00     0.027 C 
BRANCH  81  82
ATOM     82  CD  ARG     6      62.223  40.934  54.161  1.00  0.00     0.116 C 
BRANCH  82  83
ATOM     83  NE  ARG     6      62.769  40.804  55.527  1.00  0.00    -0.212 N 
ATOM     84  HE  ARG     6      63.739  41.021  55.618  1.00 99.99     0.178 HD
ATOM     85  CZ  ARG     6      62.089  40.416  56.600  1.00  0.00     0.666 C 
ATOM     86  NH2 ARG     6      62.677  40.372  57.790  1.00  0.00    -0.235 N 
ATOM     87  NH1 ARG     6      60.800  40.087  56.541  1.00  0.00    -0.235 N 
ATOM     88 1HH2 ARG     6      62.153  40.081  58.585  1.00 99.99     0.174 HD
ATOM     89 2HH2 ARG     6      63.635  40.633  57.887  1.00 99.99     0.174 HD
ATOM     90 2HH1 ARG     6      60.336  40.135  55.657  1.00 99.99     0.174 HD
ATOM     91 1HH1 ARG     6      60.308  39.801  57.357  1.00 99.99     0.174 HD
ENDBRANCH  82  83
ENDBRANCH  81  82
ENDBRANCH  80  81
ENDBRANCH  54  80
ENDBRANCH  51  54
ENDBRANCH  49  50
BRANCH  49  92
ATOM     92  CB  ILE     5      58.226  39.804  52.102  1.00  0.00     0.029 C 
ATOM     93  CG2 ILE     5      58.381  39.264  53.533  1.00  0.00     0.002 C 
BRANCH  92  94
ATOM     94  CG1 ILE     5      57.308  38.938  51.216  1.00  0.00     0.002 C 
ATOM     95  CD  ILE     5      57.990  37.711  50.596  1.00  0.00     0.000 C 
ENDBRANCH  92  94
ENDBRANCH  49  92
ENDBRANCH  47  49
ENDBRANCH  36  45
ENDBRANCH  34  36
ENDBRANCH  27  32
ENDBRANCH  24  27
ENDBRANCH  10  23
ENDBRANCH   8  10
ENDBRANCH   5   6
BRANCH   5  96
ATOM     96  CB  ILE     1      59.569  42.446  38.663  1.00  0.00     0.037 C 
ATOM     97  CG2 ILE     1      58.585  42.295  37.487  1.00  0.00     0.002 C 
BRANCH  96  98
ATOM     98  CG1 ILE     1      60.750  43.346  38.253  1.00  0.00     0.002 C 
ATOM     99  CD  ILE     1      62.069  42.598  38.000  1.00  0.00     0.000 C 
ENDBRANCH  96  98
ENDBRANCH   5  96
ENDBRANCH   1   5
TORSDOF 42
ENDMDL
MODEL 3
REMARK VINA RESULT:      -5.0      2.642      9.450
REMARK WARNING: 32 MAX_TORS EXCEEDED!!!
REMARK  42 active torsions:
REMARK  status: ('A' for Active; 'I' for Inactive)
REMARK    1  A    between atoms: N_1  and  CA_2 
REMARK    2  A    between atoms: CA_2  and  C_3 
REMARK    3  A    between atoms: CA_2  and  CB_5 
REMARK       I    between atoms: C_3  and  N_12 
REMARK    4  A    between atoms: CB_5  and  CG1_6 
REMARK    5  A    between atoms: N_12  and  CA_13 
REMARK    6  A    between atoms: CA_13  and  CB_16 
REMARK    7  A    between atoms: CA_13  and  C_14 
REMARK       I    between atoms: C_14  and  N_29 
REMARK    8  A    between atoms: CB_16  and  CG_17 
REMARK    9  A    between atoms: CG_17  and  CD_18 
REMARK   10  A    between atoms: CD_18  and  NE_19 
REMARK       I    between atoms: NE_19  and  CZ_20 
REMARK       I    between atoms: CZ_20  and  NH2_22 
REMARK       I    between atoms: CZ_20  and  NH1_21 
REMARK   11  A    between atoms: N_29  and  CA_30 
REMARK   12  A    between atoms: CA_30  and  CB_33 
REMARK   13  A    between atoms: CA_30  and  C_31 
REMARK       I    between atoms: C_31  and  N_38 
REMARK   14  A    between atoms: CB_33  and  CG1_34 
REMARK   15  A    between atoms: N_38  and  CA_39 
REMARK   16  A    between atoms: CA_39  and  CB_42 
REMARK   17  A    between atoms: CA_39  and  C_40 
REMARK       I    between atoms: C_40  and  N_51 
REMARK   18  A    between atoms: CB_42  and  CG_43 
REMARK   19  A    between atoms: CG_43  and  CD_44 
REMARK   20  A    between atoms: CD_44  and  CE_45 
REMARK   21  A    between atoms: CE_45  and  NZ_46 
REMARK   22  A    between atoms: N_51  and  CA_52 
REMARK   23  A    between atoms: CA_52  and  C_53 
REMARK   24  A    between atoms: CA_52  and  CB_55 
REMARK       I    between atoms: C_53  and  N_60 
REMARK   25  A    between atoms: CB_55  and  CG1_56 
REMARK   26  A    between atoms: N_60  and  CA_61 
REMARK   27  A    between atoms: CA_61  and  C_62 
REMARK   28  A    between atoms: CA_61  and  CB_64 
REMARK       I    between atoms: C_62  and  N_77 
REMARK   29  A    between atoms: CB_64  and  CG_65 
REMARK   30  A    between atoms: CG_65  and  CD_66 
REMARK   31  A    between atoms: CD_66  and  NE_67 
REMARK       I    between atoms: NE_67  and  CZ_68 
REMARK       I    between atoms: CZ_68  and  NH1_69 
REMARK   32  A    between atoms: N_77  and  CA_78 
REMARK   33  A    between atoms: CA_78  and  C_79 
REMARK   34  A    between atoms: CA_78  and  CB_81 
REMARK       I    between atoms: C_79  and  N_86 
REMARK   35  A    between atoms: CB_81  and  CG1_82 
REMARK   36  A    between atoms: N_86  and  CA_87 
REMARK   37  A    between atoms: CA_87  and  CB_90 
REMARK   38  A    between atoms: CA_87  and  C_88 
REMARK   39  A    between atoms: CB_90  and  CG_91 
REMARK   40  A    between atoms: CG_91  and  CD_92 
REMARK   41  A    between atoms: CD_92  and  CE_93 
REMARK   42  A    between atoms: CE_93  and  NZ_94 
ROOT
ATOM      1  N   ILE     1      55.552  40.584  56.920  1.00  0.00    -0.058 N 
ATOM      2  H1  ILE     1      54.762  40.929  56.408  1.00 99.99     0.276 HD
ATOM      3  H2  ILE     1      55.246  39.856  57.516  1.00 99.99     0.276 HD
ATOM      4  H3  ILE     1      55.886  41.290  57.526  1.00 99.99     0.276 HD
ENDROOT
BRANCH   1   5
ATOM      5  CA  ILE     1      56.565  40.122  55.938  1.00  0.00     0.255 C 
BRANCH   5   6
ATOM      6  C   ILE     1      56.142  40.616  54.527  1.00  0.00     0.259 C 
ATOM      7  O   ILE     1      54.951  40.878  54.305  1.00  0.00    -0.271 OA
ATOM      8  N   ARG     2      57.082  40.788  53.609  1.00  0.00    -0.338 N 
ATOM      9  H   ARG     2      58.055  40.617  53.779  1.00 99.99     0.164 HD
BRANCH   8  10
ATOM     10  CA  ARG     2      56.780  41.218  52.223  1.00  0.00     0.159 C 
BRANCH  10  11
ATOM     11  CB  ARG     2      57.054  42.721  52.092  1.00  0.00     0.034 C 
BRANCH  11  12
ATOM     12  CG  ARG     2      55.792  43.533  51.782  1.00  0.00     0.027 C 
BRANCH  12  13
ATOM     13  CD  ARG     2      55.481  43.493  50.286  1.00  0.00     0.116 C 
BRANCH  13  14
ATOM     14  NE  ARG     2      54.252  42.709  50.059  1.00  0.00    -0.212 N 
ATOM     15  HE  ARG     2      53.428  43.088  50.473  1.00 99.99     0.178 HD
ATOM     16  CZ  ARG     2      54.155  41.567  49.373  1.00  0.00     0.666 C 
ATOM     17  NH2 ARG     2      52.977  40.967  49.244  1.00  0.00    -0.235 N 
ATOM     18  NH1 ARG     2      55.207  40.993  48.806  1.00  0.00    -0.235 N 
ATOM     19 1HH2 ARG     2      52.917  40.113  48.731  1.00 99.99     0.174 HD
ATOM     20 2HH2 ARG     2      52.160  41.361  49.657  1.00 99.99     0.174 HD
ATOM     21 2HH1 ARG     2      56.100  41.430  48.896  1.00 99.99     0.174 HD
ATOM     22 1HH1 ARG     2      55.109  40.139  48.300  1.00 99.99     0.174 HD
ENDBRANCH  13  14
ENDBRANCH  12  13
ENDBRANCH  11  12
ENDBRANCH  10  11
BRANCH  10  23
ATOM     23  C   ARG     2      57.624  40.398  51.233  1.00  0.00     0.251 C 
ATOM     24  N   ILE     3      58.783  40.943  50.881  1.00  0.00    -0.338 N 
ATOM     25  H   ILE     3      59.098  41.815  51.258  1.00 99.99     0.164 HD
ATOM     26  O   ARG     2      57.175  39.373  50.715  1.00  0.00    -0.271 OA
BRANCH  24  27
ATOM     27  CA  ILE     3      59.697  40.308  49.905  1.00  0.00     0.159 C 
BRANCH  27  28
ATOM     28  CB  ILE     3      59.712  38.771  50.052  1.00  0.00     0.029 C 
ATOM     29  CG2 ILE     3      59.973  38.136  48.677  1.00  0.00     0.002 C 
BRANCH  28  30
ATOM     30  CG1 ILE     3      60.690  38.288  51.140  1.00  0.00     0.002 C 
ATOM     31  CD  ILE     3      60.010  37.768  52.413  1.00  0.00     0.000 C 
ENDBRANCH  28  30
ENDBRANCH  27  28
BRANCH  27  32
ATOM     32  C   ILE     3      59.433  40.723  48.449  1.00  0.00     0.251 C 
ATOM     33  O   ILE     3      58.276  40.841  48.027  1.00  0.00    -0.271 OA
ATOM     34  N   LYS     4      60.512  41.091  47.772  1.00  0.00    -0.338 N 
ATOM     35  H   LYS     4      61.364  41.309  48.250  1.00 99.99     0.164 HD
BRANCH  34  36
ATOM     36  CA  LYS     4      60.551  41.340  46.311  1.00  0.00     0.159 C 
BRANCH  36  37
ATOM     37  CB  LYS     4      60.661  42.851  46.036  1.00  0.00     0.032 C 
BRANCH  37  38
ATOM     38  CG  LYS     4      59.868  43.265  44.791  1.00  0.00     0.004 C 
BRANCH  38  39
ATOM     39  CD  LYS     4      58.560  43.974  45.146  1.00  0.00     0.032 C 
BRANCH  39  40
ATOM     40  CE  LYS     4      58.439  44.125  46.666  1.00  0.00     0.206 C 
BRANCH  40  41
ATOM     41  NZ  LYS     4      57.210  43.503  47.178  1.00  0.00    -0.064 N 
ATOM     42  HZ1 LYS     4      56.937  43.956  48.026  1.00 99.99     0.275 HD
ATOM     43  HZ3 LYS     4      57.375  42.533  47.358  1.00 99.99     0.275 HD
ATOM     44  HZ2 LYS     4      56.482  43.598  46.501  1.00 99.99     0.275 HD
ENDBRANCH  40  41
ENDBRANCH  39  40
ENDBRANCH  38  39
ENDBRANCH  37  38
ENDBRANCH  36  37
BRANCH  36  45
ATOM     45  C   LYS     4      61.711  40.538  45.684  1.00  0.00     0.251 C 
ATOM     46  O   LYS     4      61.604  39.355  45.354  1.00  0.00    -0.271 OA
ATOM     47  N   ILE     5      62.771  41.277  45.371  1.00  0.00    -0.338 N 
ATOM     48  H   ILE     5      62.824  42.240  45.631  1.00 99.99     0.164 HD
BRANCH  47  49
ATOM     49  CA  ILE     5      63.998  40.761  44.719  1.00  0.00     0.159 C 
BRANCH  49  50
ATOM     50  C   ILE     5      65.247  41.021  45.578  1.00  0.00     0.251 C 
ATOM     51  N   ARG     6      65.533  42.290  45.840  1.00  0.00    -0.338 N 
ATOM     52  H   ARG     6      64.996  43.046  45.461  1.00 99.99     0.164 HD
ATOM     53  O   ILE     5      65.921  40.073  45.998  1.00  0.00    -0.271 OA
BRANCH  51  54
ATOM     54  CA  ARG     6      66.642  42.711  46.722  1.00  0.00     0.159 C 
BRANCH  54  55
ATOM     55  C   ARG     6      66.108  43.112  48.101  1.00  0.00     0.251 C 
ATOM     56  N   ILE     7      64.793  43.214  48.171  1.00  0.00    -0.338 N 
ATOM     57  H   ILE     7      64.215  42.999  47.381  1.00 99.99     0.164 HD
ATOM     58  O   ARG     6      66.876  43.487  48.999  1.00  0.00    -0.271 OA
BRANCH  56  59
ATOM     59  CA  ILE     7      64.042  43.600  49.385  1.00  0.00     0.159 C 
BRANCH  59  60
ATOM     60  C   ILE     7      63.291  42.387  49.981  1.00  0.00     0.251 C 
ATOM     61  O   ILE     7      63.048  41.400  49.274  1.00  0.00    -0.271 OA
ATOM     62  N   LYS     8      63.119  42.401  51.299  1.00  0.00    -0.336 N 
ATOM     63  H   LYS     8      63.667  43.007  51.872  1.00 99.99     0.164 HD
BRANCH  62  64
ATOM     64  CA  LYS     8      62.184  41.521  52.054  1.00  0.00     0.168 C 
BRANCH  64  65
ATOM     65  CB  LYS     8      62.926  40.732  53.140  1.00  0.00     0.033 C 
BRANCH  65  66
ATOM     66  CG  LYS     8      64.067  39.727  52.890  1.00  0.00     0.004 C 
BRANCH  66  67
ATOM     67  CD  LYS     8      63.615  38.424  53.554  1.00  0.00     0.032 C 
BRANCH  67  68
ATOM     68  CE  LYS     8      64.293  38.146  54.897  1.00  0.00     0.206 C 
BRANCH  68  69
ATOM     69  NZ  LYS     8      65.479  39.004  55.049  1.00  0.00    -0.064 N 
ATOM     70  HZ1 LYS     8      65.965  38.752  55.885  1.00 99.99     0.275 HD
ATOM     71  HZ2 LYS     8      66.083  38.878  54.261  1.00 99.99     0.275 HD
ATOM     72  HZ3 LYS     8      65.197  39.962  55.101  1.00 99.99     0.275 HD
ENDBRANCH  68  69
ENDBRANCH  67  68
ENDBRANCH  66  67
ENDBRANCH  65  66
ENDBRANCH  64  65
BRANCH  64  73
ATOM     73  C   LYS     8      61.086  42.394  52.773  1.00  0.00     0.206 C 
ATOM     74  O   LYS     8      61.062  43.604  52.463  1.00 99.99    -0.646 OA
ATOM     75  OXT LYS     8      60.191  41.892  53.498  1.00 99.99    -0.646 OA
ENDBRANCH  64  73
ENDBRANCH  62  64
ENDBRANCH  59  60
BRANCH  59  76
ATOM     76  CB  ILE     7      63.129  44.789  48.993  1.00  0.00     0.029 C 
ATOM     77  CG2 ILE     7      61.634  44.448  49.148  1.00  0.00     0.002 C 
BRANCH  76  78
ATOM     78  CG1 ILE     7      63.533  46.076  49.733  1.00  0.00     0.002 C 
ATOM     79  CD  ILE     7      62.916  46.226  51.131  1.00  0.00     0.000 C 
ENDBRANCH  76  78
ENDBRANCH  59  76
ENDBRANCH  56  59
ENDBRANCH  54  55
BRANCH  54  80
ATOM     80  CB  ARG     6      67.418  43.890  46.128  1.00  0.00     0.034 C 
BRANCH  80  81
ATOM     81  CG  ARG     6      68.897  43.601  45.871  1.00  0.00     0.027 C 
BRANCH  81  82
ATOM     82  CD  ARG     6      68.990  42.290  45.096  1.00  0.00     0.116 C 
BRANCH  82  83
ATOM     83  NE  ARG     6      68.445  42.438  43.732  1.00  0.00    -0.212 N 
ATOM     84  HE  ARG     6      68.468  43.366  43.365  1.00 99.99     0.178 HD
ATOM     85  CZ  ARG     6      67.928  41.462  42.993  1.00  0.00     0.666 C 
ATOM     86  NH2 ARG     6      67.500  41.707  41.759  1.00  0.00    -0.235 N 
ATOM     87  NH1 ARG     6      67.844  40.209  43.434  1.00  0.00    -0.235 N 
ATOM     88 1HH2 ARG     6      67.117  40.964  41.218  1.00 99.99     0.174 HD
ATOM     89 2HH2 ARG     6      67.565  42.626  41.377  1.00 99.99     0.174 HD
ATOM     90 2HH1 ARG     6      68.182  40.003  44.352  1.00 99.99     0.174 HD
ATOM     91 1HH1 ARG     6      67.456  39.492  42.864  1.00 99.99     0.174 HD
ENDBRANCH  82  83
ENDBRANCH  81  82
ENDBRANCH  80  81
ENDBRANCH  54  80
ENDBRANCH  51  54
ENDBRANCH  49  50
BRANCH  49  92
ATOM     92  CB  ILE     5      64.174  41.340  43.297  1.00  0.00     0.029 C 
ATOM     93  CG2 ILE     5      64.133  40.199  42.266  1.00  0.00     0.002 C 
BRANCH  92  94
ATOM     94  CG1 ILE     5      63.180  42.478  42.992  1.00  0.00     0.002 C 
ATOM     95  CD  ILE     5      62.057  42.101  42.016  1.00  0.00     0.000 C 
ENDBRANCH  92  94
ENDBRANCH  49  92
ENDBRANCH  47  49
ENDBRANCH  36  45
ENDBRANCH  34  36
ENDBRANCH  27  32
ENDBRANCH  24  27
ENDBRANCH  10  23
ENDBRANCH   8  10
ENDBRANCH   5   6
BRANCH   5  96
ATOM     96  CB  ILE     1      56.694  38.575  55.989  1.00  0.00     0.037 C 
ATOM     97  CG2 ILE     1      57.903  38.128  56.833  1.00  0.00     0.002 C 
BRANCH  96  98
ATOM     98  CG1 ILE     1      55.404  37.930  56.529  1.00  0.00     0.002 C 
ATOM     99  CD  ILE     1      54.479  37.346  55.449  1.00  0.00     0.000 C 
ENDBRANCH  96  98
ENDBRANCH   5  96
ENDBRANCH   1   5
TORSDOF 42
ENDMDL
MODEL 4
REMARK VINA RESULT:      -4.9      1.486      2.123
REMARK WARNING: 32 MAX_TORS EXCEEDED!!!
REMARK  42 active torsions:
REMARK  status: ('A' for Active; 'I' for Inactive)
REMARK    1  A    between atoms: N_1  and  CA_2 
REMARK    2  A    between atoms: CA_2  and  C_3 
REMARK    3  A    between atoms: CA_2  and  CB_5 
REMARK       I    between atoms: C_3  and  N_12 
REMARK    4  A    between atoms: CB_5  and  CG1_6 
REMARK    5  A    between atoms: N_12  and  CA_13 
REMARK    6  A    between atoms: CA_13  and  CB_16 
REMARK    7  A    between atoms: CA_13  and  C_14 
REMARK       I    between atoms: C_14  and  N_29 
REMARK    8  A    between atoms: CB_16  and  CG_17 
REMARK    9  A    between atoms: CG_17  and  CD_18 
REMARK   10  A    between atoms: CD_18  and  NE_19 
REMARK       I    between atoms: NE_19  and  CZ_20 
REMARK       I    between atoms: CZ_20  and  NH2_22 
REMARK       I    between atoms: CZ_20  and  NH1_21 
REMARK   11  A    between atoms: N_29  and  CA_30 
REMARK   12  A    between atoms: CA_30  and  CB_33 
REMARK   13  A    between atoms: CA_30  and  C_31 
REMARK       I    between atoms: C_31  and  N_38 
REMARK   14  A    between atoms: CB_33  and  CG1_34 
REMARK   15  A    between atoms: N_38  and  CA_39 
REMARK   16  A    between atoms: CA_39  and  CB_42 
REMARK   17  A    between atoms: CA_39  and  C_40 
REMARK       I    between atoms: C_40  and  N_51 
REMARK   18  A    between atoms: CB_42  and  CG_43 
REMARK   19  A    between atoms: CG_43  and  CD_44 
REMARK   20  A    between atoms: CD_44  and  CE_45 
REMARK   21  A    between atoms: CE_45  and  NZ_46 
REMARK   22  A    between atoms: N_51  and  CA_52 
REMARK   23  A    between atoms: CA_52  and  C_53 
REMARK   24  A    between atoms: CA_52  and  CB_55 
REMARK       I    between atoms: C_53  and  N_60 
REMARK   25  A    between atoms: CB_55  and  CG1_56 
REMARK   26  A    between atoms: N_60  and  CA_61 
REMARK   27  A    between atoms: CA_61  and  C_62 
REMARK   28  A    between atoms: CA_61  and  CB_64 
REMARK       I    between atoms: C_62  and  N_77 
REMARK   29  A    between atoms: CB_64  and  CG_65 
REMARK   30  A    between atoms: CG_65  and  CD_66 
REMARK   31  A    between atoms: CD_66  and  NE_67 
REMARK       I    between atoms: NE_67  and  CZ_68 
REMARK       I    between atoms: CZ_68  and  NH1_69 
REMARK   32  A    between atoms: N_77  and  CA_78 
REMARK   33  A    between atoms: CA_78  and  C_79 
REMARK   34  A    between atoms: CA_78  and  CB_81 
REMARK       I    between atoms: C_79  and  N_86 
REMARK   35  A    between atoms: CB_81  and  CG1_82 
REMARK   36  A    between atoms: N_86  and  CA_87 
REMARK   37  A    between atoms: CA_87  and  CB_90 
REMARK   38  A    between atoms: CA_87  and  C_88 
REMARK   39  A    between atoms: CB_90  and  CG_91 
REMARK   40  A    between atoms: CG_91  and  CD_92 
REMARK   41  A    between atoms: CD_92  and  CE_93 
REMARK   42  A    between atoms: CE_93  and  NZ_94 
ROOT
ATOM      1  N   ILE     1      59.124  44.431  40.189  1.00  0.00    -0.058 N 
ATOM      2  H1  ILE     1      58.716  44.977  39.454  1.00 99.99     0.276 HD
ATOM      3  H2  ILE     1      58.733  44.722  41.050  1.00 99.99     0.276 HD
ATOM      4  H3  ILE     1      60.088  44.639  40.259  1.00 99.99     0.276 HD
ENDROOT
BRANCH   1   5
ATOM      5  CA  ILE     1      58.849  43.001  39.900  1.00  0.00     0.255 C 
BRANCH   5   6
ATOM      6  C   ILE     1      59.380  42.149  41.085  1.00  0.00     0.259 C 
ATOM      7  O   ILE     1      60.011  41.106  40.852  1.00  0.00    -0.271 OA
ATOM      8  N   ARG     2      59.183  42.589  42.319  1.00  0.00    -0.338 N 
ATOM      9  H   ARG     2      58.708  43.447  42.527  1.00 99.99     0.164 HD
BRANCH   8  10
ATOM     10  CA  ARG     2      59.614  41.833  43.519  1.00  0.00     0.159 C 
BRANCH  10  11
ATOM     11  CB  ARG     2      60.631  42.672  44.302  1.00  0.00     0.034 C 
BRANCH  11  12
ATOM     12  CG  ARG     2      61.936  42.902  43.531  1.00  0.00     0.027 C 
BRANCH  12  13
ATOM     13  CD  ARG     2      63.142  42.547  44.400  1.00  0.00     0.116 C 
BRANCH  13  14
ATOM     14  NE  ARG     2      62.736  41.577  45.434  1.00  0.00    -0.212 N 
ATOM     15  HE  ARG     2      61.843  41.746  45.845  1.00 99.99     0.178 HD
ATOM     16  CZ  ARG     2      63.444  40.526  45.857  1.00  0.00     0.666 C 
ATOM     17  NH2 ARG     2      62.951  39.727  46.796  1.00  0.00    -0.235 N 
ATOM     18  NH1 ARG     2      64.644  40.241  45.370  1.00  0.00    -0.235 N 
ATOM     19 1HH2 ARG     2      63.489  38.946  47.106  1.00 99.99     0.174 HD
ATOM     20 2HH2 ARG     2      62.054  39.905  47.193  1.00 99.99     0.174 HD
ATOM     21 2HH1 ARG     2      65.030  40.834  44.665  1.00 99.99     0.174 HD
ATOM     22 1HH1 ARG     2      65.154  39.451  45.703  1.00 99.99     0.174 HD
ENDBRANCH  13  14
ENDBRANCH  12  13
ENDBRANCH  11  12
ENDBRANCH  10  11
BRANCH  10  23
ATOM     23  C   ARG     2      58.387  41.482  44.376  1.00  0.00     0.251 C 
ATOM     24  N   ILE     3      58.603  41.412  45.685  1.00  0.00    -0.338 N 
ATOM     25  H   ILE     3      59.500  41.604  46.087  1.00 99.99     0.164 HD
ATOM     26  O   ARG     2      57.318  41.162  43.851  1.00  0.00    -0.271 OA
BRANCH  24  27
ATOM     27  CA  ILE     3      57.543  41.044  46.648  1.00  0.00     0.159 C 
BRANCH  27  28
ATOM     28  CB  ILE     3      58.012  39.943  47.623  1.00  0.00     0.029 C 
ATOM     29  CG2 ILE     3      57.335  38.615  47.249  1.00  0.00     0.002 C 
BRANCH  28  30
ATOM     30  CG1 ILE     3      59.547  39.839  47.707  1.00  0.00     0.002 C 
ATOM     31  CD  ILE     3      60.054  38.758  48.671  1.00  0.00     0.000 C 
ENDBRANCH  28  30
ENDBRANCH  27  28
BRANCH  27  32
ATOM     32  C   ILE     3      56.953  42.242  47.408  1.00  0.00     0.251 C 
ATOM     33  O   ILE     3      56.894  43.359  46.877  1.00  0.00    -0.271 OA
ATOM     34  N   LYS     4      56.384  41.941  48.567  1.00  0.00    -0.338 N 
ATOM     35  H   LYS     4      56.150  40.992  48.789  1.00 99.99     0.164 HD
BRANCH  34  36
ATOM     36  CA  LYS     4      55.926  42.933  49.569  1.00  0.00     0.159 C 
BRANCH  36  37
ATOM     37  CB  LYS     4      54.402  42.826  49.759  1.00  0.00     0.032 C 
BRANCH  37  38
ATOM     38  CG  LYS     4      53.880  41.423  49.424  1.00  0.00     0.004 C 
BRANCH  38  39
ATOM     39  CD  LYS     4      53.894  40.495  50.639  1.00  0.00     0.032 C 
BRANCH  39  40
ATOM     40  CE  LYS     4      52.665  39.580  50.617  1.00  0.00     0.206 C 
BRANCH  40  41
ATOM     41  NZ  LYS     4      52.891  38.346  51.382  1.00  0.00    -0.064 N 
ATOM     42  HZ1 LYS     4      53.232  38.577  52.293  1.00 99.99     0.275 HD
ATOM     43  HZ3 LYS     4      53.565  37.777  50.909  1.00 99.99     0.275 HD
ATOM     44  HZ2 LYS     4      52.032  37.844  51.466  1.00 99.99     0.275 HD
ENDBRANCH  40  41
ENDBRANCH  39  40
ENDBRANCH  38  39
ENDBRANCH  37  38
ENDBRANCH  36  37
BRANCH  36  45
ATOM     45  C   LYS     4      56.703  42.727  50.888  1.00  0.00     0.251 C 
ATOM     46  O   LYS     4      56.491  43.398  51.899  1.00  0.00    -0.271 OA
ATOM     47  N   ILE     5      57.489  41.655  50.888  1.00  0.00    -0.338 N 
ATOM     48  H   ILE     5      57.627  41.115  50.060  1.00 99.99     0.164 HD
BRANCH  47  49
ATOM     49  CA  ILE     5      58.307  41.209  52.042  1.00  0.00     0.159 C 
BRANCH  49  50
ATOM     50  C   ILE     5      59.649  41.955  52.107  1.00  0.00     0.251 C 
ATOM     51  N   ARG     6      60.623  41.492  51.334  1.00  0.00    -0.338 N 
ATOM     52  H   ARG     6      60.513  40.670  50.773  1.00 99.99     0.164 HD
ATOM     53  O   ILE     5      59.776  42.942  52.841  1.00  0.00    -0.271 OA
BRANCH  51  54
ATOM     54  CA  ARG     6      61.944  42.143  51.209  1.00  0.00     0.159 C 
BRANCH  54  55
ATOM     55  C   ARG     6      62.032  42.930  49.896  1.00  0.00     0.251 C 
ATOM     56  N   ILE     7      63.160  43.597  49.733  1.00  0.00    -0.338 N 
ATOM     57  H   ILE     7      63.898  43.539  50.409  1.00 99.99     0.164 HD
ATOM     58  O   ARG     6      61.041  43.064  49.164  1.00  0.00    -0.271 OA
BRANCH  56  59
ATOM     59  CA  ILE     7      63.477  44.439  48.559  1.00  0.00     0.159 C 
BRANCH  59  60
ATOM     60  C   ILE     7      64.647  43.840  47.746  1.00  0.00     0.251 C 
ATOM     61  O   ILE     7      64.927  44.301  46.632  1.00  0.00    -0.271 OA
ATOM     62  N   LYS     8      65.419  42.972  48.392  1.00  0.00    -0.336 N 
ATOM     63  H   LYS     8      65.401  42.927  49.389  1.00 99.99     0.164 HD
BRANCH  62  64
ATOM     64  CA  LYS     8      66.400  42.052  47.753  1.00  0.00     0.168 C 
BRANCH  64  65
ATOM     65  CB  LYS     8      67.802  42.675  47.722  1.00  0.00     0.033 C 
BRANCH  65  66
ATOM     66  CG  LYS     8      68.357  43.564  46.593  1.00  0.00     0.004 C 
BRANCH  66  67
ATOM     67  CD  LYS     8      69.418  42.714  45.889  1.00  0.00     0.032 C 
BRANCH  67  68
ATOM     68  CE  LYS     8      69.979  43.352  44.617  1.00  0.00     0.206 C 
BRANCH  68  69
ATOM     69  NZ  LYS     8      69.236  42.869  43.442  1.00  0.00    -0.064 N 
ATOM     70  HZ1 LYS     8      68.897  41.946  43.621  1.00 99.99     0.275 HD
ATOM     71  HZ2 LYS     8      68.465  43.481  43.263  1.00 99.99     0.275 HD
ATOM     72  HZ3 LYS     8      69.841  42.855  42.645  1.00 99.99     0.275 HD
ENDBRANCH  68  69
ENDBRANCH  67  68
ENDBRANCH  66  67
ENDBRANCH  65  66
ENDBRANCH  64  65
BRANCH  64  73
ATOM     73  C   LYS     8      66.498  40.712  48.580  1.00  0.00     0.206 C 
ATOM     74  O   LYS     8      65.566  39.897  48.412  1.00 99.99    -0.646 OA
ATOM     75  OXT LYS     8      67.514  40.405  49.253  1.00 99.99    -0.646 OA
ENDBRANCH  64  73
ENDBRANCH  62  64
ENDBRANCH  59  60
BRANCH  59  76
ATOM     76  CB  ILE     7      63.733  45.874  49.088  1.00  0.00     0.029 C 
ATOM     77  CG2 ILE     7      62.434  46.565  49.546  1.00  0.00     0.002 C 
BRANCH  76  78
ATOM     78  CG1 ILE     7      64.834  45.889  50.163  1.00  0.00     0.002 C 
ATOM     79  CD  ILE     7      66.161  46.512  49.705  1.00  0.00     0.000 C 
ENDBRANCH  76  78
ENDBRANCH  59  76
ENDBRANCH  56  59
ENDBRANCH  54  55
BRANCH  54  80
ATOM     80  CB  ARG     6      63.083  41.121  51.251  1.00  0.00     0.034 C 
BRANCH  80  81
ATOM     81  CG  ARG     6      62.638  39.677  51.025  1.00  0.00     0.027 C 
BRANCH  81  82
ATOM     82  CD  ARG     6      63.710  38.760  51.609  1.00  0.00     0.116 C 
BRANCH  82  83
ATOM     83  NE  ARG     6      64.955  39.506  51.884  1.00  0.00    -0.212 N 
ATOM     84  HE  ARG     6      64.862  40.499  51.886  1.00 99.99     0.178 HD
ATOM     85  CZ  ARG     6      66.150  38.966  52.101  1.00  0.00     0.666 C 
ATOM     86  NH2 ARG     6      67.196  39.737  52.376  1.00  0.00    -0.235 N 
ATOM     87  NH1 ARG     6      66.346  37.649  52.085  1.00  0.00    -0.235 N 
ATOM     88 1HH2 ARG     6      68.084  39.318  52.539  1.00 99.99     0.174 HD
ATOM     89 2HH2 ARG     6      67.092  40.729  52.423  1.00 99.99     0.174 HD
ATOM     90 2HH1 ARG     6      65.565  37.053  51.901  1.00 99.99     0.174 HD
ATOM     91 1HH1 ARG     6      67.248  37.266  52.253  1.00 99.99     0.174 HD
ENDBRANCH  82  83
ENDBRANCH  81  82
ENDBRANCH  80  81
ENDBRANCH  54  80
ENDBRANCH  51  54
ENDBRANCH  49  50
BRANCH  49  92
ATOM     92  CB  ILE     5      58.525  39.678  52.027  1.00  0.00     0.029 C 
ATOM     93  CG2 ILE     5      58.814  39.183  53.454  1.00  0.00     0.002 C 
BRANCH  92  94
ATOM     94  CG1 ILE     5      57.372  38.921  51.338  1.00  0.00     0.002 C 
ATOM     95  CD  ILE     5      57.636  37.427  51.107  1.00  0.00     0.000 C 
ENDBRANCH  92  94
ENDBRANCH  49  92
ENDBRANCH  47  49
ENDBRANCH  36  45
ENDBRANCH  34  36
ENDBRANCH  27  32
ENDBRANCH  24  27
ENDBRANCH  10  23
ENDBRANCH   8  10
ENDBRANCH   5   6
BRANCH   5  96
ATOM     96  CB  ILE     1      59.511  42.590  38.556  1.00  0.00     0.037 C 
ATOM     97  CG2 ILE     1      58.622  42.940  37.347  1.00  0.00     0.002 C 
BRANCH  96  98
ATOM     98  CG1 ILE     1      60.898  43.243  38.400  1.00  0.00     0.002 C 
ATOM     99  CD  ILE     1      61.188  43.805  36.999  1.00  0.00     0.000 C 
ENDBRANCH  96  98
ENDBRANCH   5  96
ENDBRANCH   1   5
TORSDOF 42
ENDMDL
MODEL 5
REMARK VINA RESULT:      -4.8      1.975      8.516
REMARK WARNING: 32 MAX_TORS EXCEEDED!!!
REMARK  42 active torsions:
REMARK  status: ('A' for Active; 'I' for Inactive)
REMARK    1  A    between atoms: N_1  and  CA_2 
REMARK    2  A    between atoms: CA_2  and  C_3 
REMARK    3  A    between atoms: CA_2  and  CB_5 
REMARK       I    between atoms: C_3  and  N_12 
REMARK    4  A    between atoms: CB_5  and  CG1_6 
REMARK    5  A    between atoms: N_12  and  CA_13 
REMARK    6  A    between atoms: CA_13  and  CB_16 
REMARK    7  A    between atoms: CA_13  and  C_14 
REMARK       I    between atoms: C_14  and  N_29 
REMARK    8  A    between atoms: CB_16  and  CG_17 
REMARK    9  A    between atoms: CG_17  and  CD_18 
REMARK   10  A    between atoms: CD_18  and  NE_19 
REMARK       I    between atoms: NE_19  and  CZ_20 
REMARK       I    between atoms: CZ_20  and  NH2_22 
REMARK       I    between atoms: CZ_20  and  NH1_21 
REMARK   11  A    between atoms: N_29  and  CA_30 
REMARK   12  A    between atoms: CA_30  and  CB_33 
REMARK   13  A    between atoms: CA_30  and  C_31 
REMARK       I    between atoms: C_31  and  N_38 
REMARK   14  A    between atoms: CB_33  and  CG1_34 
REMARK   15  A    between atoms: N_38  and  CA_39 
REMARK   16  A    between atoms: CA_39  and  CB_42 
REMARK   17  A    between atoms: CA_39  and  C_40 
REMARK       I    between atoms: C_40  and  N_51 
REMARK   18  A    between atoms: CB_42  and  CG_43 
REMARK   19  A    between atoms: CG_43  and  CD_44 
REMARK   20  A    between atoms: CD_44  and  CE_45 
REMARK   21  A    between atoms: CE_45  and  NZ_46 
REMARK   22  A    between atoms: N_51  and  CA_52 
REMARK   23  A    between atoms: CA_52  and  C_53 
REMARK   24  A    between atoms: CA_52  and  CB_55 
REMARK       I    between atoms: C_53  and  N_60 
REMARK   25  A    between atoms: CB_55  and  CG1_56 
REMARK   26  A    between atoms: N_60  and  CA_61 
REMARK   27  A    between atoms: CA_61  and  C_62 
REMARK   28  A    between atoms: CA_61  and  CB_64 
REMARK       I    between atoms: C_62  and  N_77 
REMARK   29  A    between atoms: CB_64  and  CG_65 
REMARK   30  A    between atoms: CG_65  and  CD_66 
REMARK   31  A    between atoms: CD_66  and  NE_67 
REMARK       I    between atoms: NE_67  and  CZ_68 
REMARK       I    between atoms: CZ_68  and  NH1_69 
REMARK   32  A    between atoms: N_77  and  CA_78 
REMARK   33  A    between atoms: CA_78  and  C_79 
REMARK   34  A    between atoms: CA_78  and  CB_81 
REMARK       I    between atoms: C_79  and  N_86 
REMARK   35  A    between atoms: CB_81  and  CG1_82 
REMARK   36  A    between atoms: N_86  and  CA_87 
REMARK   37  A    between atoms: CA_87  and  CB_90 
REMARK   38  A    between atoms: CA_87  and  C_88 
REMARK   39  A    between atoms: CB_90  and  CG_91 
REMARK   40  A    between atoms: CG_91  and  CD_92 
REMARK   41  A    between atoms: CD_92  and  CE_93 
REMARK   42  A    between atoms: CE_93  and  NZ_94 
ROOT
ATOM      1  N   ILE     1      67.897  38.552  45.589  1.00  0.00    -0.058 N 
ATOM      2  H1  ILE     1      68.295  38.898  44.737  1.00 99.99     0.276 HD
ATOM      3  H2  ILE     1      68.497  37.857  45.957  1.00 99.99     0.276 HD
ATOM      4  H3  ILE     1      67.049  38.083  45.391  1.00 99.99     0.276 HD
ENDROOT
BRANCH   1   5
ATOM      5  CA  ILE     1      67.732  39.702  46.514  1.00  0.00     0.255 C 
BRANCH   5   6
ATOM      6  C   ILE     1      66.222  40.062  46.587  1.00  0.00     0.259 C 
ATOM      7  O   ILE     1      65.375  39.177  46.393  1.00  0.00    -0.271 OA
ATOM      8  N   ARG     2      65.882  41.302  46.902  1.00  0.00    -0.338 N 
ATOM      9  H   ARG     2      66.551  42.023  47.098  1.00 99.99     0.164 HD
BRANCH   8  10
ATOM     10  CA  ARG     2      64.472  41.757  46.960  1.00  0.00     0.159 C 
BRANCH  10  11
ATOM     11  CB  ARG     2      64.347  42.870  48.007  1.00  0.00     0.034 C 
BRANCH  11  12
ATOM     12  CG  ARG     2      65.694  43.273  48.617  1.00  0.00     0.027 C 
BRANCH  12  13
ATOM     13  CD  ARG     2      66.117  44.655  48.121  1.00  0.00     0.116 C 
BRANCH  13  14
ATOM     14  NE  ARG     2      64.997  45.600  48.286  1.00  0.00    -0.212 N 
ATOM     15  HE  ARG     2      64.353  45.630  47.525  1.00 99.99     0.178 HD
ATOM     16  CZ  ARG     2      64.782  46.400  49.336  1.00  0.00     0.666 C 
ATOM     17  NH2 ARG     2      63.724  47.202  49.354  1.00  0.00    -0.235 N 
ATOM     18  NH1 ARG     2      65.598  46.428  50.380  1.00  0.00    -0.235 N 
ATOM     19 1HH2 ARG     2      63.574  47.796  50.142  1.00 99.99     0.174 HD
ATOM     20 2HH2 ARG     2      63.085  47.216  48.589  1.00 99.99     0.174 HD
ATOM     21 2HH1 ARG     2      66.400  45.833  50.380  1.00 99.99     0.174 HD
ATOM     22 1HH1 ARG     2      65.417  47.034  51.151  1.00 99.99     0.174 HD
ENDBRANCH  13  14
ENDBRANCH  12  13
ENDBRANCH  11  12
ENDBRANCH  10  11
BRANCH  10  23
ATOM     23  C   ARG     2      64.026  42.234  45.568  1.00  0.00     0.251 C 
ATOM     24  N   ILE     3      63.343  41.349  44.851  1.00  0.00    -0.338 N 
ATOM     25  H   ILE     3      63.109  40.443  45.206  1.00 99.99     0.164 HD
ATOM     26  O   ARG     2      64.403  43.320  45.120  1.00  0.00    -0.271 OA
BRANCH  24  27
ATOM     27  CA  ILE     3      62.876  41.631  43.475  1.00  0.00     0.159 C 
BRANCH  27  28
ATOM     28  CB  ILE     3      63.628  40.778  42.431  1.00  0.00     0.029 C 
ATOM     29  CG2 ILE     3      63.234  41.244  41.021  1.00  0.00     0.002 C 
BRANCH  28  30
ATOM     30  CG1 ILE     3      65.152  40.764  42.661  1.00  0.00     0.002 C 
ATOM     31  CD  ILE     3      65.751  39.361  42.827  1.00  0.00     0.000 C 
ENDBRANCH  28  30
ENDBRANCH  27  28
BRANCH  27  32
ATOM     32  C   ILE     3      61.354  41.507  43.300  1.00  0.00     0.251 C 
ATOM     33  O   ILE     3      60.795  40.408  43.411  1.00  0.00    -0.271 OA
ATOM     34  N   LYS     4      60.711  42.660  43.192  1.00  0.00    -0.338 N 
ATOM     35  H   LYS     4      61.157  43.519  43.454  1.00 99.99     0.164 HD
BRANCH  34  36
ATOM     36  CA  LYS     4      59.283  42.803  42.819  1.00  0.00     0.159 C 
BRANCH  36  37
ATOM     37  CB  LYS     4      59.089  42.455  41.332  1.00  0.00     0.032 C 
BRANCH  37  38
ATOM     38  CG  LYS     4      60.022  43.268  40.427  1.00  0.00     0.004 C 
BRANCH  38  39
ATOM     39  CD  LYS     4      59.252  44.096  39.396  1.00  0.00     0.032 C 
BRANCH  39  40
ATOM     40  CE  LYS     4      59.094  43.304  38.095  1.00  0.00     0.206 C 
BRANCH  40  41
ATOM     41  NZ  LYS     4      58.611  44.153  36.997  1.00  0.00    -0.064 N 
ATOM     42  HZ1 LYS     4      58.457  45.080  37.337  1.00 99.99     0.275 HD
ATOM     43  HZ3 LYS     4      57.753  43.782  36.639  1.00 99.99     0.275 HD
ATOM     44  HZ2 LYS     4      59.294  44.174  36.268  1.00 99.99     0.275 HD
ENDBRANCH  40  41
ENDBRANCH  39  40
ENDBRANCH  38  39
ENDBRANCH  37  38
ENDBRANCH  36  37
BRANCH  36  45
ATOM     45  C   LYS     4      58.418  41.927  43.751  1.00  0.00     0.251 C 
ATOM     46  O   LYS     4      57.807  40.934  43.355  1.00  0.00    -0.271 OA
ATOM     47  N   ILE     5      58.533  42.235  45.039  1.00  0.00    -0.338 N 
ATOM     48  H   ILE     5      59.053  43.034  45.336  1.00 99.99     0.164 HD
BRANCH  47  49
ATOM     49  CA  ILE     5      57.846  41.521  46.142  1.00  0.00     0.159 C 
BRANCH  49  50
ATOM     50  C   ILE     5      57.171  42.501  47.116  1.00  0.00     0.251 C 
ATOM     51  N   ARG     6      56.436  41.965  48.082  1.00  0.00    -0.338 N 
ATOM     52  H   ARG     6      56.284  40.977  48.150  1.00 99.99     0.164 HD
ATOM     53  O   ILE     5      57.336  43.720  46.985  1.00  0.00    -0.271 OA
BRANCH  51  54
ATOM     54  CA  ARG     6      55.794  42.756  49.153  1.00  0.00     0.159 C 
BRANCH  54  55
ATOM     55  C   ARG     6      56.644  42.724  50.427  1.00  0.00     0.251 C 
ATOM     56  N   ILE     7      57.589  41.800  50.431  1.00  0.00    -0.338 N 
ATOM     57  H   ILE     7      57.741  41.212  49.634  1.00 99.99     0.164 HD
ATOM     58  O   ARG     6      56.327  43.388  51.424  1.00  0.00    -0.271 OA
BRANCH  56  59
ATOM     59  CA  ILE     7      58.527  41.562  51.549  1.00  0.00     0.159 C 
BRANCH  59  60
ATOM     60  C   ILE     7      59.921  42.154  51.240  1.00  0.00     0.251 C 
ATOM     61  O   ILE     7      60.148  42.658  50.132  1.00  0.00    -0.271 OA
ATOM     62  N   LYS     8      60.750  42.261  52.274  1.00  0.00    -0.336 N 
ATOM     63  H   LYS     8      60.398  42.216  53.207  1.00 99.99     0.164 HD
BRANCH  62  64
ATOM     64  CA  LYS     8      62.214  42.511  52.180  1.00  0.00     0.168 C 
BRANCH  64  65
ATOM     65  CB  LYS     8      62.839  41.703  51.036  1.00  0.00     0.033 C 
BRANCH  65  66
ATOM     66  CG  LYS     8      63.049  40.176  51.034  1.00  0.00     0.004 C 
BRANCH  66  67
ATOM     67  CD  LYS     8      64.433  39.955  50.419  1.00  0.00     0.032 C 
BRANCH  67  68
ATOM     68  CE  LYS     8      64.700  38.509  49.998  1.00  0.00     0.206 C 
BRANCH  68  69
ATOM     69  NZ  LYS     8      63.950  38.195  48.772  1.00  0.00    -0.064 N 
ATOM     70  HZ1 LYS     8      63.822  37.206  48.706  1.00 99.99     0.275 HD
ATOM     71  HZ2 LYS     8      63.058  38.647  48.803  1.00 99.99     0.275 HD
ATOM     72  HZ3 LYS     8      64.460  38.520  47.974  1.00 99.99     0.275 HD
ENDBRANCH  68  69
ENDBRANCH  67  68
ENDBRANCH  66  67
ENDBRANCH  65  66
ENDBRANCH  64  65
BRANCH  64  73
ATOM     73  C   LYS     8      62.482  44.036  51.880  1.00  0.00     0.206 C 
ATOM     74  O   LYS     8      63.150  44.282  50.854  1.00 99.99    -0.646 OA
ATOM     75  OXT LYS     8      61.939  44.960  52.538  1.00 99.99    -0.646 OA
ENDBRANCH  64  73
ENDBRANCH  62  64
ENDBRANCH  59  60
BRANCH  59  76
ATOM     76  CB  ILE     7      58.526  40.036  51.823  1.00  0.00     0.029 C 
ATOM     77  CG2 ILE     7      57.143  39.529  52.278  1.00  0.00     0.002 C 
BRANCH  76  78
ATOM     78  CG1 ILE     7      59.092  39.250  50.628  1.00  0.00     0.002 C 
ATOM     79  CD  ILE     7      58.092  38.287  49.970  1.00  0.00     0.000 C 
ENDBRANCH  76  78
ENDBRANCH  59  76
ENDBRANCH  56  59
ENDBRANCH  54  55
BRANCH  54  80
ATOM     80  CB  ARG     6      54.393  42.232  49.478  1.00  0.00     0.034 C 
BRANCH  80  81
ATOM     81  CG  ARG     6      54.339  40.738  49.792  1.00  0.00     0.027 C 
BRANCH  81  82
ATOM     82  CD  ARG     6      52.876  40.355  49.999  1.00  0.00     0.116 C 
BRANCH  82  83
ATOM     83  NE  ARG     6      52.610  40.019  51.412  1.00  0.00    -0.212 N 
ATOM     84  HE  ARG     6      52.337  40.789  51.986  1.00 99.99     0.178 HD
ATOM     85  CZ  ARG     6      52.721  38.812  51.957  1.00  0.00     0.666 C 
ATOM     86  NH2 ARG     6      52.418  38.621  53.236  1.00  0.00    -0.235 N 
ATOM     87  NH1 ARG     6      53.105  37.750  51.253  1.00  0.00    -0.235 N 
ATOM     88 1HH2 ARG     6      52.504  37.710  53.629  1.00 99.99     0.174 HD
ATOM     89 2HH2 ARG     6      52.102  39.383  53.798  1.00 99.99     0.174 HD
ATOM     90 2HH1 ARG     6      53.316  37.872  50.283  1.00 99.99     0.174 HD
ATOM     91 1HH1 ARG     6      53.180  36.855  51.679  1.00 99.99     0.174 HD
ENDBRANCH  82  83
ENDBRANCH  81  82
ENDBRANCH  80  81
ENDBRANCH  54  80
ENDBRANCH  51  54
ENDBRANCH  49  50
BRANCH  49  92
ATOM     92  CB  ILE     5      58.806  40.569  46.891  1.00  0.00     0.029 C 
ATOM     93  CG2 ILE     5      58.703  39.156  46.294  1.00  0.00     0.002 C 
BRANCH  92  94
ATOM     94  CG1 ILE     5      60.250  41.107  46.947  1.00  0.00     0.002 C 
ATOM     95  CD  ILE     5      61.228  40.231  47.742  1.00  0.00     0.000 C 
ENDBRANCH  92  94
ENDBRANCH  49  92
ENDBRANCH  47  49
ENDBRANCH  36  45
ENDBRANCH  34  36
ENDBRANCH  27  32
ENDBRANCH  24  27
ENDBRANCH  10  23
ENDBRANCH   8  10
ENDBRANCH   5   6
BRANCH   5  96
ATOM     96  CB  ILE     1      68.585  40.905  46.028  1.00  0.00     0.037 C 
ATOM     97  CG2 ILE     1      70.014  40.865  46.603  1.00  0.00     0.002 C 
BRANCH  96  98
ATOM     98  CG1 ILE     1      68.634  40.964  44.490  1.00  0.00     0.002 C 
ATOM     99  CD  ILE     1      69.565  42.046  43.919  1.00  0.00     0.000 C 
ENDBRANCH  96  98
ENDBRANCH   5  96
ENDBRANCH   1   5
TORSDOF 42
ENDMDL
MODEL 6
REMARK VINA RESULT:      -4.8      2.127      8.623
REMARK WARNING: 32 MAX_TORS EXCEEDED!!!
REMARK  42 active torsions:
REMARK  status: ('A' for Active; 'I' for Inactive)
REMARK    1  A    between atoms: N_1  and  CA_2 
REMARK    2  A    between atoms: CA_2  and  C_3 
REMARK    3  A    between atoms: CA_2  and  CB_5 
REMARK       I    between atoms: C_3  and  N_12 
REMARK    4  A    between atoms: CB_5  and  CG1_6 
REMARK    5  A    between atoms: N_12  and  CA_13 
REMARK    6  A    between atoms: CA_13  and  CB_16 
REMARK    7  A    between atoms: CA_13  and  C_14 
REMARK       I    between atoms: C_14  and  N_29 
REMARK    8  A    between atoms: CB_16  and  CG_17 
REMARK    9  A    between atoms: CG_17  and  CD_18 
REMARK   10  A    between atoms: CD_18  and  NE_19 
REMARK       I    between atoms: NE_19  and  CZ_20 
REMARK       I    between atoms: CZ_20  and  NH2_22 
REMARK       I    between atoms: CZ_20  and  NH1_21 
REMARK   11  A    between atoms: N_29  and  CA_30 
REMARK   12  A    between atoms: CA_30  and  CB_33 
REMARK   13  A    between atoms: CA_30  and  C_31 
REMARK       I    between atoms: C_31  and  N_38 
REMARK   14  A    between atoms: CB_33  and  CG1_34 
REMARK   15  A    between atoms: N_38  and  CA_39 
REMARK   16  A    between atoms: CA_39  and  CB_42 
REMARK   17  A    between atoms: CA_39  and  C_40 
REMARK       I    between atoms: C_40  and  N_51 
REMARK   18  A    between atoms: CB_42  and  CG_43 
REMARK   19  A    between atoms: CG_43  and  CD_44 
REMARK   20  A    between atoms: CD_44  and  CE_45 
REMARK   21  A    between atoms: CE_45  and  NZ_46 
REMARK   22  A    between atoms: N_51  and  CA_52 
REMARK   23  A    between atoms: CA_52  and  C_53 
REMARK   24  A    between atoms: CA_52  and  CB_55 
REMARK       I    between atoms: C_53  and  N_60 
REMARK   25  A    between atoms: CB_55  and  CG1_56 
REMARK   26  A    between atoms: N_60  and  CA_61 
REMARK   27  A    between atoms: CA_61  and  C_62 
REMARK   28  A    between atoms: CA_61  and  CB_64 
REMARK       I    between atoms: C_62  and  N_77 
REMARK   29  A    between atoms: CB_64  and  CG_65 
REMARK   30  A    between atoms: CG_65  and  CD_66 
REMARK   31  A    between atoms: CD_66  and  NE_67 
REMARK       I    between atoms: NE_67  and  CZ_68 
REMARK       I    between atoms: CZ_68  and  NH1_69 
REMARK   32  A    between atoms: N_77  and  CA_78 
REMARK   33  A    between atoms: CA_78  and  C_79 
REMARK   34  A    between atoms: CA_78  and  CB_81 
REMARK       I    between atoms: C_79  and  N_86 
REMARK   35  A    between atoms: CB_81  and  CG1_82 
REMARK   36  A    between atoms: N_86  and  CA_87 
REMARK   37  A    between atoms: CA_87  and  CB_90 
REMARK   38  A    between atoms: CA_87  and  C_88 
REMARK   39  A    between atoms: CB_90  and  CG_91 
REMARK   40  A    between atoms: CG_91  and  CD_92 
REMARK   41  A    between atoms: CD_92  and  CE_93 
REMARK   42  A    between atoms: CE_93  and  NZ_94 
ROOT
ATOM      1  N   ILE     1      68.912  39.884  45.085  1.00  0.00    -0.058 N 
ATOM      2  H1  ILE     1      68.868  39.855  44.083  1.00 99.99     0.276 HD
ATOM      3  H2  ILE     1      69.827  40.147  45.351  1.00 99.99     0.276 HD
ATOM      4  H3  ILE     1      68.789  38.972  45.447  1.00 99.99     0.276 HD
ENDROOT
BRANCH   1   5
ATOM      5  CA  ILE     1      67.887  40.849  45.558  1.00  0.00     0.255 C 
BRANCH   5   6
ATOM      6  C   ILE     1      66.482  40.238  45.303  1.00  0.00     0.259 C 
ATOM      7  O   ILE     1      66.218  39.761  44.189  1.00  0.00    -0.271 OA
ATOM      8  N   ARG     2      65.616  40.201  46.305  1.00  0.00    -0.338 N 
ATOM      9  H   ARG     2      65.823  40.548  47.223  1.00 99.99     0.164 HD
BRANCH   8  10
ATOM     10  CA  ARG     2      64.238  39.676  46.156  1.00  0.00     0.159 C 
BRANCH  10  11
ATOM     11  CB  ARG     2      63.686  39.317  47.540  1.00  0.00     0.034 C 
BRANCH  11  12
ATOM     12  CG  ARG     2      64.544  39.864  48.687  1.00  0.00     0.027 C 
BRANCH  12  13
ATOM     13  CD  ARG     2      63.997  41.204  49.175  1.00  0.00     0.116 C 
BRANCH  13  14
ATOM     14  NE  ARG     2      65.118  42.118  49.462  1.00  0.00    -0.212 N 
ATOM     15  HE  ARG     2      65.651  41.891  50.273  1.00 99.99     0.178 HD
ATOM     16  CZ  ARG     2      65.464  43.196  48.753  1.00  0.00     0.666 C 
ATOM     17  NH2 ARG     2      66.505  43.931  49.125  1.00  0.00    -0.235 N 
ATOM     18  NH1 ARG     2      64.797  43.572  47.670  1.00  0.00    -0.235 N 
ATOM     19 1HH2 ARG     2      66.754  44.735  48.589  1.00 99.99     0.174 HD
ATOM     20 2HH2 ARG     2      67.034  43.687  49.934  1.00 99.99     0.174 HD
ATOM     21 2HH1 ARG     2      64.010  43.032  47.378  1.00 99.99     0.174 HD
ATOM     22 1HH1 ARG     2      65.074  44.382  47.157  1.00 99.99     0.174 HD
ENDBRANCH  13  14
ENDBRANCH  12  13
ENDBRANCH  11  12
ENDBRANCH  10  11
BRANCH  10  23
ATOM     23  C   ARG     2      63.361  40.721  45.448  1.00  0.00     0.251 C 
ATOM     24  N   ILE     3      62.934  40.385  44.236  1.00  0.00    -0.338 N 
ATOM     25  H   ILE     3      63.147  39.498  43.824  1.00 99.99     0.164 HD
ATOM     26  O   ARG     2      63.189  41.840  45.938  1.00  0.00    -0.271 OA
BRANCH  24  27
ATOM     27  CA  ILE     3      62.117  41.292  43.400  1.00  0.00     0.159 C 
BRANCH  27  28
ATOM     28  CB  ILE     3      62.753  41.519  42.012  1.00  0.00     0.029 C 
ATOM     29  CG2 ILE     3      64.162  42.106  42.192  1.00  0.00     0.002 C 
BRANCH  28  30
ATOM     30  CG1 ILE     3      62.730  40.253  41.133  1.00  0.00     0.002 C 
ATOM     31  CD  ILE     3      62.638  40.532  39.628  1.00  0.00     0.000 C 
ENDBRANCH  28  30
ENDBRANCH  27  28
BRANCH  27  32
ATOM     32  C   ILE     3      60.647  40.861  43.272  1.00  0.00     0.251 C 
ATOM     33  O   ILE     3      60.334  39.665  43.333  1.00  0.00    -0.271 OA
ATOM     34  N   LYS     4      59.774  41.858  43.263  1.00  0.00    -0.338 N 
ATOM     35  H   LYS     4      60.044  42.775  43.563  1.00 99.99     0.164 HD
BRANCH  34  36
ATOM     36  CA  LYS     4      58.331  41.719  42.953  1.00  0.00     0.159 C 
BRANCH  36  37
ATOM     37  CB  LYS     4      58.148  40.957  41.627  1.00  0.00     0.032 C 
BRANCH  37  38
ATOM     38  CG  LYS     4      57.988  41.911  40.437  1.00  0.00     0.004 C 
BRANCH  38  39
ATOM     39  CD  LYS     4      59.262  42.004  39.595  1.00  0.00     0.032 C 
BRANCH  39  40
ATOM     40  CE  LYS     4      59.618  43.472  39.339  1.00  0.00     0.206 C 
BRANCH  40  41
ATOM     41  NZ  LYS     4      59.023  43.967  38.090  1.00  0.00    -0.064 N 
ATOM     42  HZ1 LYS     4      59.533  43.600  37.312  1.00 99.99     0.275 HD
ATOM     43  HZ3 LYS     4      59.063  44.966  38.072  1.00 99.99     0.275 HD
ATOM     44  HZ2 LYS     4      58.071  43.669  38.034  1.00 99.99     0.275 HD
ENDBRANCH  40  41
ENDBRANCH  39  40
ENDBRANCH  38  39
ENDBRANCH  37  38
ENDBRANCH  36  37
BRANCH  36  45
ATOM     45  C   LYS     4      57.615  41.031  44.135  1.00  0.00     0.251 C 
ATOM     46  O   LYS     4      56.927  40.017  44.000  1.00  0.00    -0.271 OA
ATOM     47  N   ILE     5      57.947  41.521  45.325  1.00  0.00    -0.338 N 
ATOM     48  H   ILE     5      58.525  42.331  45.408  1.00 99.99     0.164 HD
BRANCH  47  49
ATOM     49  CA  ILE     5      57.438  41.011  46.621  1.00  0.00     0.159 C 
BRANCH  49  50
ATOM     50  C   ILE     5      56.712  42.109  47.415  1.00  0.00     0.251 C 
ATOM     51  N   ARG     6      55.948  41.705  48.422  1.00  0.00    -0.338 N 
ATOM     52  H   ARG     6      55.806  40.736  48.628  1.00 99.99     0.164 HD
ATOM     53  O   ILE     5      56.867  43.298  47.114  1.00  0.00    -0.271 OA
BRANCH  51  54
ATOM     54  CA  ARG     6      55.254  42.632  49.341  1.00  0.00     0.159 C 
BRANCH  54  55
ATOM     55  C   ARG     6      56.090  42.861  50.604  1.00  0.00     0.251 C 
ATOM     56  N   ILE     7      56.902  41.865  50.911  1.00  0.00    -0.338 N 
ATOM     57  H   ILE     7      56.975  41.058  50.322  1.00 99.99     0.164 HD
ATOM     58  O   ARG     6      55.863  43.820  51.355  1.00  0.00    -0.271 OA
BRANCH  56  59
ATOM     59  CA  ILE     7      57.798  41.843  52.087  1.00  0.00     0.159 C 
BRANCH  59  60
ATOM     60  C   ILE     7      59.251  41.517  51.671  1.00  0.00     0.251 C 
ATOM     61  O   ILE     7      59.499  40.474  51.051  1.00  0.00    -0.271 OA
ATOM     62  N   LYS     8      60.137  42.493  51.841  1.00  0.00    -0.336 N 
ATOM     63  H   LYS     8      59.831  43.434  51.969  1.00 99.99     0.164 HD
BRANCH  62  64
ATOM     64  CA  LYS     8      61.617  42.329  51.803  1.00  0.00     0.168 C 
BRANCH  64  65
ATOM     65  CB  LYS     8      62.317  43.681  51.619  1.00  0.00     0.033 C 
BRANCH  65  66
ATOM     66  CG  LYS     8      62.329  44.508  50.319  1.00  0.00     0.004 C 
BRANCH  66  67
ATOM     67  CD  LYS     8      63.377  45.601  50.541  1.00  0.00     0.032 C 
BRANCH  67  68
ATOM     68  CE  LYS     8      63.455  46.625  49.406  1.00  0.00     0.206 C 
BRANCH  68  69
ATOM     69  NZ  LYS     8      64.845  47.069  49.222  1.00  0.00    -0.064 N 
ATOM     70  HZ1 LYS     8      65.369  46.870  50.050  1.00 99.99     0.275 HD
ATOM     71  HZ2 LYS     8      65.249  46.583  48.446  1.00 99.99     0.275 HD
ATOM     72  HZ3 LYS     8      64.863  48.053  49.043  1.00 99.99     0.275 HD
ENDBRANCH  68  69
ENDBRANCH  67  68
ENDBRANCH  66  67
ENDBRANCH  65  66
ENDBRANCH  64  65
BRANCH  64  73
ATOM     73  C   LYS     8      62.125  41.716  53.165  1.00  0.00     0.206 C 
ATOM     74  O   LYS     8      62.477  42.540  54.035  1.00 99.99    -0.646 OA
ATOM     75  OXT LYS     8      62.046  40.490  53.426  1.00 99.99    -0.646 OA
ENDBRANCH  64  73
ENDBRANCH  62  64
ENDBRANCH  59  60
BRANCH  59  76
ATOM     76  CB  ILE     7      57.185  40.846  53.103  1.00  0.00     0.029 C 
ATOM     77  CG2 ILE     7      58.095  40.634  54.329  1.00  0.00     0.002 C 
BRANCH  76  78
ATOM     78  CG1 ILE     7      55.747  41.242  53.483  1.00  0.00     0.002 C 
ATOM     79  CD  ILE     7      54.976  40.168  54.263  1.00  0.00     0.000 C 
ENDBRANCH  76  78
ENDBRANCH  59  76
ENDBRANCH  56  59
ENDBRANCH  54  55
BRANCH  54  80
ATOM     80  CB  ARG     6      53.878  42.097  49.747  1.00  0.00     0.034 C 
BRANCH  80  81
ATOM     81  CG  ARG     6      53.797  40.574  49.835  1.00  0.00     0.027 C 
BRANCH  81  82
ATOM     82  CD  ARG     6      52.343  40.196  50.103  1.00  0.00     0.116 C 
BRANCH  82  83
ATOM     83  NE  ARG     6      52.136  39.853  51.524  1.00  0.00    -0.212 N 
ATOM     84  HE  ARG     6      52.002  40.634  52.133  1.00 99.99     0.178 HD
ATOM     85  CZ  ARG     6      52.133  38.626  52.034  1.00  0.00     0.666 C 
ATOM     86  NH2 ARG     6      51.899  38.435  53.327  1.00  0.00    -0.235 N 
ATOM     87  NH1 ARG     6      52.332  37.546  51.281  1.00  0.00    -0.235 N 
ATOM     88 1HH2 ARG     6      51.898  37.510  53.694  1.00 99.99     0.174 HD
ATOM     89 2HH2 ARG     6      51.720  39.213  53.926  1.00 99.99     0.174 HD
ATOM     90 2HH1 ARG     6      52.489  37.671  50.301  1.00 99.99     0.174 HD
ATOM     91 1HH1 ARG     6      52.324  36.636  51.681  1.00 99.99     0.174 HD
ENDBRANCH  82  83
ENDBRANCH  81  82
ENDBRANCH  80  81
ENDBRANCH  54  80
ENDBRANCH  51  54
ENDBRANCH  49  50
BRANCH  49  92
ATOM     92  CB  ILE     5      58.564  40.370  47.463  1.00  0.00     0.029 C 
ATOM     93  CG2 ILE     5      58.495  38.838  47.339  1.00  0.00     0.002 C 
BRANCH  92  94
ATOM     94  CG1 ILE     5      59.954  40.949  47.135  1.00  0.00     0.002 C 
ATOM     95  CD  ILE     5      60.400  42.098  48.049  1.00  0.00     0.000 C 
ENDBRANCH  92  94
ENDBRANCH  49  92
ENDBRANCH  47  49
ENDBRANCH  36  45
ENDBRANCH  34  36
ENDBRANCH  27  32
ENDBRANCH  24  27
ENDBRANCH  10  23
ENDBRANCH   8  10
ENDBRANCH   5   6
BRANCH   5  96
ATOM     96  CB  ILE     1      68.060  42.211  44.833  1.00  0.00     0.037 C 
ATOM     97  CG2 ILE     1      68.348  43.356  45.823  1.00  0.00     0.002 C 
BRANCH  96  98
ATOM     98  CG1 ILE     1      69.175  42.136  43.773  1.00  0.00     0.002 C 
ATOM     99  CD  ILE     1      70.241  43.238  43.885  1.00  0.00     0.000 C 
ENDBRANCH  96  98
ENDBRANCH   5  96
ENDBRANCH   1   5
TORSDOF 42
ENDMDL
MODEL 7
REMARK VINA RESULT:      -4.8      2.611      8.772
REMARK WARNING: 32 MAX_TORS EXCEEDED!!!
REMARK  42 active torsions:
REMARK  status: ('A' for Active; 'I' for Inactive)
REMARK    1  A    between atoms: N_1  and  CA_2 
REMARK    2  A    between atoms: CA_2  and  C_3 
REMARK    3  A    between atoms: CA_2  and  CB_5 
REMARK       I    between atoms: C_3  and  N_12 
REMARK    4  A    between atoms: CB_5  and  CG1_6 
REMARK    5  A    between atoms: N_12  and  CA_13 
REMARK    6  A    between atoms: CA_13  and  CB_16 
REMARK    7  A    between atoms: CA_13  and  C_14 
REMARK       I    between atoms: C_14  and  N_29 
REMARK    8  A    between atoms: CB_16  and  CG_17 
REMARK    9  A    between atoms: CG_17  and  CD_18 
REMARK   10  A    between atoms: CD_18  and  NE_19 
REMARK       I    between atoms: NE_19  and  CZ_20 
REMARK       I    between atoms: CZ_20  and  NH2_22 
REMARK       I    between atoms: CZ_20  and  NH1_21 
REMARK   11  A    between atoms: N_29  and  CA_30 
REMARK   12  A    between atoms: CA_30  and  CB_33 
REMARK   13  A    between atoms: CA_30  and  C_31 
REMARK       I    between atoms: C_31  and  N_38 
REMARK   14  A    between atoms: CB_33  and  CG1_34 
REMARK   15  A    between atoms: N_38  and  CA_39 
REMARK   16  A    between atoms: CA_39  and  CB_42 
REMARK   17  A    between atoms: CA_39  and  C_40 
REMARK       I    between atoms: C_40  and  N_51 
REMARK   18  A    between atoms: CB_42  and  CG_43 
REMARK   19  A    between atoms: CG_43  and  CD_44 
REMARK   20  A    between atoms: CD_44  and  CE_45 
REMARK   21  A    between atoms: CE_45  and  NZ_46 
REMARK   22  A    between atoms: N_51  and  CA_52 
REMARK   23  A    between atoms: CA_52  and  C_53 
REMARK   24  A    between atoms: CA_52  and  CB_55 
REMARK       I    between atoms: C_53  and  N_60 
REMARK   25  A    between atoms: CB_55  and  CG1_56 
REMARK   26  A    between atoms: N_60  and  CA_61 
REMARK   27  A    between atoms: CA_61  and  C_62 
REMARK   28  A    between atoms: CA_61  and  CB_64 
REMARK       I    between atoms: C_62  and  N_77 
REMARK   29  A    between atoms: CB_64  and  CG_65 
REMARK   30  A    between atoms: CG_65  and  CD_66 
REMARK   31  A    between atoms: CD_66  and  NE_67 
REMARK       I    between atoms: NE_67  and  CZ_68 
REMARK       I    between atoms: CZ_68  and  NH1_69 
REMARK   32  A    between atoms: N_77  and  CA_78 
REMARK   33  A    between atoms: CA_78  and  C_79 
REMARK   34  A    between atoms: CA_78  and  CB_81 
REMARK       I    between atoms: C_79  and  N_86 
REMARK   35  A    between atoms: CB_81  and  CG1_82 
REMARK   36  A    between atoms: N_86  and  CA_87 
REMARK   37  A    between atoms: CA_87  and  CB_90 
REMARK   38  A    between atoms: CA_87  and  C_88 
REMARK   39  A    between atoms: CB_90  and  CG_91 
REMARK   40  A    between atoms: CG_91  and  CD_92 
REMARK   41  A    between atoms: CD_92  and  CE_93 
REMARK   42  A    between atoms: CE_93  and  NZ_94 
ROOT
ATOM      1  N   ILE     1      64.802  43.327  49.355  1.00  0.00    -0.058 N 
ATOM      2  H1  ILE     1      65.597  43.240  48.750  1.00 99.99     0.276 HD
ATOM      3  H2  ILE     1      65.090  43.772  50.190  1.00 99.99     0.276 HD
ATOM      4  H3  ILE     1      64.498  42.428  49.632  1.00 99.99     0.276 HD
ENDROOT
BRANCH   1   5
ATOM      5  CA  ILE     1      63.763  44.104  48.631  1.00  0.00     0.255 C 
BRANCH   5   6
ATOM      6  C   ILE     1      63.953  43.876  47.106  1.00  0.00     0.259 C 
ATOM      7  O   ILE     1      64.906  44.414  46.523  1.00  0.00    -0.271 OA
ATOM      8  N   ARG     2      63.111  43.069  46.478  1.00  0.00    -0.338 N 
ATOM      9  H   ARG     2      62.356  42.595  46.938  1.00 99.99     0.164 HD
BRANCH   8  10
ATOM     10  CA  ARG     2      63.181  42.815  45.019  1.00  0.00     0.159 C 
BRANCH  10  11
ATOM     11  CB  ARG     2      64.167  41.671  44.755  1.00  0.00     0.034 C 
BRANCH  11  12
ATOM     12  CG  ARG     2      65.186  42.003  43.659  1.00  0.00     0.027 C 
BRANCH  12  13
ATOM     13  CD  ARG     2      66.609  41.738  44.151  1.00  0.00     0.116 C 
BRANCH  13  14
ATOM     14  NE  ARG     2      66.846  42.489  45.398  1.00  0.00    -0.212 N 
ATOM     15  HE  ARG     2      66.126  42.408  46.083  1.00 99.99     0.178 HD
ATOM     16  CZ  ARG     2      67.908  43.251  45.676  1.00  0.00     0.666 C 
ATOM     17  NH2 ARG     2      67.994  43.870  46.847  1.00  0.00    -0.235 N 
ATOM     18  NH1 ARG     2      68.900  43.420  44.812  1.00  0.00    -0.235 N 
ATOM     19 1HH2 ARG     2      68.791  44.438  47.043  1.00 99.99     0.174 HD
ATOM     20 2HH2 ARG     2      67.270  43.774  47.525  1.00 99.99     0.174 HD
ATOM     21 2HH1 ARG     2      68.849  42.964  43.926  1.00 99.99     0.174 HD
ATOM     22 1HH1 ARG     2      69.682  43.995  45.042  1.00 99.99     0.174 HD
ENDBRANCH  13  14
ENDBRANCH  12  13
ENDBRANCH  11  12
ENDBRANCH  10  11
BRANCH  10  23
ATOM     23  C   ARG     2      61.777  42.488  44.484  1.00  0.00     0.251 C 
ATOM     24  N   ILE     3      61.719  41.518  43.579  1.00  0.00    -0.338 N 
ATOM     25  H   ILE     3      62.533  41.015  43.287  1.00 99.99     0.164 HD
ATOM     26  O   ARG     2      60.805  43.183  44.792  1.00  0.00    -0.271 OA
BRANCH  24  27
ATOM     27  CA  ILE     3      60.454  41.108  42.931  1.00  0.00     0.159 C 
BRANCH  27  28
ATOM     28  CB  ILE     3      60.676  40.675  41.466  1.00  0.00     0.029 C 
ATOM     29  CG2 ILE     3      59.603  41.327  40.579  1.00  0.00     0.002 C 
BRANCH  28  30
ATOM     30  CG1 ILE     3      62.113  40.945  40.978  1.00  0.00     0.002 C 
ATOM     31  CD  ILE     3      62.461  40.272  39.644  1.00  0.00     0.000 C 
ENDBRANCH  28  30
ENDBRANCH  27  28
BRANCH  27  32
ATOM     32  C   ILE     3      59.675  40.038  43.713  1.00  0.00     0.251 C 
ATOM     33  O   ILE     3      58.457  39.897  43.545  1.00  0.00    -0.271 OA
ATOM     34  N   LYS     4      60.428  39.211  44.423  1.00  0.00    -0.338 N 
ATOM     35  H   LYS     4      61.414  39.147  44.255  1.00 99.99     0.164 HD
BRANCH  34  36
ATOM     36  CA  LYS     4      59.912  38.231  45.409  1.00  0.00     0.159 C 
BRANCH  36  37
ATOM     37  CB  LYS     4      60.908  37.067  45.567  1.00  0.00     0.032 C 
BRANCH  37  38
ATOM     38  CG  LYS     4      60.259  35.712  45.257  1.00  0.00     0.004 C 
BRANCH  38  39
ATOM     39  CD  LYS     4      59.562  35.703  43.895  1.00  0.00     0.032 C 
BRANCH  39  40
ATOM     40  CE  LYS     4      58.155  35.113  44.028  1.00  0.00     0.206 C 
BRANCH  40  41
ATOM     41  NZ  LYS     4      57.184  35.825  43.185  1.00  0.00    -0.064 N 
ATOM     42  HZ1 LYS     4      57.672  36.395  42.526  1.00 99.99     0.275 HD
ATOM     43  HZ3 LYS     4      56.603  36.404  43.759  1.00 99.99     0.275 HD
ATOM     44  HZ2 LYS     4      56.617  35.163  42.698  1.00 99.99     0.275 HD
ENDBRANCH  40  41
ENDBRANCH  39  40
ENDBRANCH  38  39
ENDBRANCH  37  38
ENDBRANCH  36  37
BRANCH  36  45
ATOM     45  C   LYS     4      59.624  38.949  46.745  1.00  0.00     0.251 C 
ATOM     46  O   LYS     4      58.611  38.735  47.413  1.00  0.00    -0.271 OA
ATOM     47  N   ILE     5      60.639  39.682  47.193  1.00  0.00    -0.338 N 
ATOM     48  H   ILE     5      61.459  39.822  46.640  1.00 99.99     0.164 HD
BRANCH  47  49
ATOM     49  CA  ILE     5      60.638  40.435  48.470  1.00  0.00     0.159 C 
BRANCH  49  50
ATOM     50  C   ILE     5      59.938  41.796  48.323  1.00  0.00     0.251 C 
ATOM     51  N   ARG     6      58.616  41.799  48.433  1.00  0.00    -0.338 N 
ATOM     52  H   ARG     6      58.090  40.955  48.555  1.00 99.99     0.164 HD
ATOM     53  O   ILE     5      60.605  42.819  48.127  1.00  0.00    -0.271 OA
BRANCH  51  54
ATOM     54  CA  ARG     6      57.798  43.029  48.406  1.00  0.00     0.159 C 
BRANCH  54  55
ATOM     55  C   ARG     6      56.660  42.939  49.430  1.00  0.00     0.251 C 
ATOM     56  N   ILE     7      56.545  41.762  50.017  1.00  0.00    -0.338 N 
ATOM     57  H   ILE     7      57.190  41.020  49.821  1.00 99.99     0.164 HD
ATOM     58  O   ARG     6      55.823  43.846  49.534  1.00  0.00    -0.271 OA
BRANCH  56  59
ATOM     59  CA  ILE     7      55.520  41.423  51.027  1.00  0.00     0.159 C 
BRANCH  59  60
ATOM     60  C   ILE     7      56.166  41.157  52.406  1.00  0.00     0.251 C 
ATOM     61  O   ILE     7      55.452  40.941  53.394  1.00  0.00    -0.271 OA
ATOM     62  N   LYS     8      57.484  40.983  52.406  1.00  0.00    -0.336 N 
ATOM     63  H   LYS     8      57.964  40.772  51.557  1.00 99.99     0.164 HD
BRANCH  62  64
ATOM     64  CA  LYS     8      58.356  41.015  53.613  1.00  0.00     0.168 C 
BRANCH  64  65
ATOM     65  CB  LYS     8      58.891  39.615  53.944  1.00  0.00     0.033 C 
BRANCH  65  66
ATOM     66  CG  LYS     8      58.862  38.958  55.337  1.00  0.00     0.004 C 
BRANCH  66  67
ATOM     67  CD  LYS     8      58.026  39.894  56.213  1.00  0.00     0.032 C 
BRANCH  67  68
ATOM     68  CE  LYS     8      56.638  39.348  56.552  1.00  0.00     0.206 C 
BRANCH  68  69
ATOM     69  NZ  LYS     8      55.612  40.361  56.256  1.00  0.00    -0.064 N 
ATOM     70  HZ1 LYS     8      56.057  41.228  56.032  1.00 99.99     0.275 HD
ATOM     71  HZ2 LYS     8      55.060  40.058  55.479  1.00 99.99     0.275 HD
ATOM     72  HZ3 LYS     8      55.022  40.485  57.055  1.00 99.99     0.275 HD
ENDBRANCH  68  69
ENDBRANCH  67  68
ENDBRANCH  66  67
ENDBRANCH  65  66
ENDBRANCH  64  65
BRANCH  64  73
ATOM     73  C   LYS     8      59.602  41.946  53.351  1.00  0.00     0.206 C 
ATOM     74  O   LYS     8      60.696  41.527  53.784  1.00 99.99    -0.646 OA
ATOM     75  OXT LYS     8      59.540  42.971  52.628  1.00 99.99    -0.646 OA
ENDBRANCH  64  73
ENDBRANCH  62  64
ENDBRANCH  59  60
BRANCH  59  76
ATOM     76  CB  ILE     7      54.704  40.232  50.461  1.00  0.00     0.029 C 
ATOM     77  CG2 ILE     7      53.416  40.695  49.754  1.00  0.00     0.002 C 
BRANCH  76  78
ATOM     78  CG1 ILE     7      55.577  39.318  49.585  1.00  0.00     0.002 C 
ATOM     79  CD  ILE     7      55.977  37.992  50.249  1.00  0.00     0.000 C 
ENDBRANCH  76  78
ENDBRANCH  59  76
ENDBRANCH  56  59
ENDBRANCH  54  55
BRANCH  54  80
ATOM     80  CB  ARG     6      57.199  43.279  47.020  1.00  0.00     0.034 C 
BRANCH  80  81
ATOM     81  CG  ARG     6      57.389  42.124  46.037  1.00  0.00     0.027 C 
BRANCH  81  82
ATOM     82  CD  ARG     6      56.251  41.131  46.255  1.00  0.00     0.116 C 
BRANCH  82  83
ATOM     83  NE  ARG     6      55.742  40.614  44.969  1.00  0.00    -0.212 N 
ATOM     84  HE  ARG     6      55.349  41.303  44.362  1.00 99.99     0.178 HD
ATOM     85  CZ  ARG     6      55.753  39.342  44.585  1.00  0.00     0.666 C 
ATOM     86  NH2 ARG     6      55.299  38.998  43.385  1.00  0.00    -0.235 N 
ATOM     87  NH1 ARG     6      56.237  38.373  45.358  1.00  0.00    -0.235 N 
ATOM     88 1HH2 ARG     6      55.316  38.041  43.111  1.00 99.99     0.174 HD
ATOM     89 2HH2 ARG     6      54.949  39.693  42.761  1.00 99.99     0.174 HD
ATOM     90 2HH1 ARG     6      56.602  38.618  46.257  1.00 99.99     0.174 HD
ATOM     91 1HH1 ARG     6      56.238  37.427  45.052  1.00 99.99     0.174 HD
ENDBRANCH  82  83
ENDBRANCH  81  82
ENDBRANCH  80  81
ENDBRANCH  54  80
ENDBRANCH  51  54
ENDBRANCH  49  50
BRANCH  49  92
ATOM     92  CB  ILE     5      62.067  40.605  49.033  1.00  0.00     0.029 C 
ATOM     93  CG2 ILE     5      62.013  40.684  50.568  1.00  0.00     0.002 C 
BRANCH  92  94
ATOM     94  CG1 ILE     5      63.043  39.532  48.508  1.00  0.00     0.002 C 
ATOM     95  CD  ILE     5      64.473  40.034  48.263  1.00  0.00     0.000 C 
ENDBRANCH  92  94
ENDBRANCH  49  92
ENDBRANCH  47  49
ENDBRANCH  36  45
ENDBRANCH  34  36
ENDBRANCH  27  32
ENDBRANCH  24  27
ENDBRANCH  10  23
ENDBRANCH   8  10
ENDBRANCH   5   6
BRANCH   5  96
ATOM     96  CB  ILE     1      63.864  45.608  49.002  1.00  0.00     0.037 C 
ATOM     97  CG2 ILE     1      62.550  46.139  49.607  1.00  0.00     0.002 C 
BRANCH  96  98
ATOM     98  CG1 ILE     1      65.033  45.862  49.972  1.00  0.00     0.002 C 
ATOM     99  CD  ILE     1      66.203  46.659  49.373  1.00  0.00     0.000 C 
ENDBRANCH  96  98
ENDBRANCH   5  96
ENDBRANCH   1   5
TORSDOF 42
ENDMDL
MODEL 8
REMARK VINA RESULT:      -4.8      2.709      9.326
REMARK WARNING: 32 MAX_TORS EXCEEDED!!!
REMARK  42 active torsions:
REMARK  status: ('A' for Active; 'I' for Inactive)
REMARK    1  A    between atoms: N_1  and  CA_2 
REMARK    2  A    between atoms: CA_2  and  C_3 
REMARK    3  A    between atoms: CA_2  and  CB_5 
REMARK       I    between atoms: C_3  and  N_12 
REMARK    4  A    between atoms: CB_5  and  CG1_6 
REMARK    5  A    between atoms: N_12  and  CA_13 
REMARK    6  A    between atoms: CA_13  and  CB_16 
REMARK    7  A    between atoms: CA_13  and  C_14 
REMARK       I    between atoms: C_14  and  N_29 
REMARK    8  A    between atoms: CB_16  and  CG_17 
REMARK    9  A    between atoms: CG_17  and  CD_18 
REMARK   10  A    between atoms: CD_18  and  NE_19 
REMARK       I    between atoms: NE_19  and  CZ_20 
REMARK       I    between atoms: CZ_20  and  NH2_22 
REMARK       I    between atoms: CZ_20  and  NH1_21 
REMARK   11  A    between atoms: N_29  and  CA_30 
REMARK   12  A    between atoms: CA_30  and  CB_33 
REMARK   13  A    between atoms: CA_30  and  C_31 
REMARK       I    between atoms: C_31  and  N_38 
REMARK   14  A    between atoms: CB_33  and  CG1_34 
REMARK   15  A    between atoms: N_38  and  CA_39 
REMARK   16  A    between atoms: CA_39  and  CB_42 
REMARK   17  A    between atoms: CA_39  and  C_40 
REMARK       I    between atoms: C_40  and  N_51 
REMARK   18  A    between atoms: CB_42  and  CG_43 
REMARK   19  A    between atoms: CG_43  and  CD_44 
REMARK   20  A    between atoms: CD_44  and  CE_45 
REMARK   21  A    between atoms: CE_45  and  NZ_46 
REMARK   22  A    between atoms: N_51  and  CA_52 
REMARK   23  A    between atoms: CA_52  and  C_53 
REMARK   24  A    between atoms: CA_52  and  CB_55 
REMARK       I    between atoms: C_53  and  N_60 
REMARK   25  A    between atoms: CB_55  and  CG1_56 
REMARK   26  A    between atoms: N_60  and  CA_61 
REMARK   27  A    between atoms: CA_61  and  C_62 
REMARK   28  A    between atoms: CA_61  and  CB_64 
REMARK       I    between atoms: C_62  and  N_77 
REMARK   29  A    between atoms: CB_64  and  CG_65 
REMARK   30  A    between atoms: CG_65  and  CD_66 
REMARK   31  A    between atoms: CD_66  and  NE_67 
REMARK       I    between atoms: NE_67  and  CZ_68 
REMARK       I    between atoms: CZ_68  and  NH1_69 
REMARK   32  A    between atoms: N_77  and  CA_78 
REMARK   33  A    between atoms: CA_78  and  C_79 
REMARK   34  A    between atoms: CA_78  and  CB_81 
REMARK       I    between atoms: C_79  and  N_86 
REMARK   35  A    between atoms: CB_81  and  CG1_82 
REMARK   36  A    between atoms: N_86  and  CA_87 
REMARK   37  A    between atoms: CA_87  and  CB_90 
REMARK   38  A    between atoms: CA_87  and  C_88 
REMARK   39  A    between atoms: CB_90  and  CG_91 
REMARK   40  A    between atoms: CG_91  and  CD_92 
REMARK   41  A    between atoms: CD_92  and  CE_93 
REMARK   42  A    between atoms: CE_93  and  NZ_94 
ROOT
ATOM      1  N   ILE     1      55.444  43.272  49.387  1.00  0.00    -0.058 N 
ATOM      2  H1  ILE     1      54.927  43.307  48.529  1.00 99.99     0.276 HD
ATOM      3  H2  ILE     1      55.590  44.197  49.705  1.00 99.99     0.276 HD
ATOM      4  H3  ILE     1      56.349  42.913  49.213  1.00 99.99     0.276 HD
ENDROOT
BRANCH   1   5
ATOM      5  CA  ILE     1      54.664  42.460  50.355  1.00  0.00     0.255 C 
BRANCH   5   6
ATOM      6  C   ILE     1      55.521  42.263  51.636  1.00  0.00     0.259 C 
ATOM      7  O   ILE     1      56.396  43.095  51.917  1.00  0.00    -0.271 OA
ATOM      8  N   ARG     2      55.258  41.228  52.420  1.00  0.00    -0.338 N 
ATOM      9  H   ARG     2      54.531  40.564  52.230  1.00 99.99     0.164 HD
BRANCH   8  10
ATOM     10  CA  ARG     2      56.042  40.929  53.642  1.00  0.00     0.159 C 
BRANCH  10  11
ATOM     11  CB  ARG     2      55.100  40.381  54.721  1.00  0.00     0.034 C 
BRANCH  11  12
ATOM     12  CG  ARG     2      55.716  40.413  56.124  1.00  0.00     0.027 C 
BRANCH  12  13
ATOM     13  CD  ARG     2      55.978  38.994  56.628  1.00  0.00     0.116 C 
BRANCH  13  14
ATOM     14  NE  ARG     2      54.889  38.104  56.183  1.00  0.00    -0.212 N 
ATOM     15  HE  ARG     2      53.971  38.407  56.426  1.00 99.99     0.178 HD
ATOM     16  CZ  ARG     2      55.026  36.959  55.508  1.00  0.00     0.666 C 
ATOM     17  NH2 ARG     2      53.952  36.258  55.165  1.00  0.00    -0.235 N 
ATOM     18  NH1 ARG     2      56.213  36.483  55.159  1.00  0.00    -0.235 N 
ATOM     19 1HH2 ARG     2      54.065  35.403  54.663  1.00 99.99     0.174 HD
ATOM     20 2HH2 ARG     2      53.039  36.576  55.409  1.00 99.99     0.174 HD
ATOM     21 2HH1 ARG     2      57.031  36.997  55.412  1.00 99.99     0.174 HD
ATOM     22 1HH1 ARG     2      56.289  35.625  54.657  1.00 99.99     0.174 HD
ENDBRANCH  13  14
ENDBRANCH  12  13
ENDBRANCH  11  12
ENDBRANCH  10  11
BRANCH  10  23
ATOM     23  C   ARG     2      57.161  39.931  53.306  1.00  0.00     0.251 C 
ATOM     24  N   ILE     3      58.354  40.465  53.066  1.00  0.00    -0.338 N 
ATOM     25  H   ILE     3      58.517  41.451  53.130  1.00 99.99     0.164 HD
ATOM     26  O   ARG     2      56.915  38.733  53.146  1.00  0.00    -0.271 OA
BRANCH  24  27
ATOM     27  CA  ILE     3      59.529  39.652  52.686  1.00  0.00     0.159 C 
BRANCH  27  28
ATOM     28  CB  ILE     3      59.758  39.656  51.159  1.00  0.00     0.029 C 
ATOM     29  CG2 ILE     3      59.146  38.382  50.554  1.00  0.00     0.002 C 
BRANCH  28  30
ATOM     30  CG1 ILE     3      59.257  40.949  50.487  1.00  0.00     0.002 C 
ATOM     31  CD  ILE     3      58.101  40.739  49.501  1.00  0.00     0.000 C 
ENDBRANCH  28  30
ENDBRANCH  27  28
BRANCH  27  32
ATOM     32  C   ILE     3      60.814  40.029  53.440  1.00  0.00     0.251 C 
ATOM     33  O   ILE     3      60.762  40.702  54.477  1.00  0.00    -0.271 OA
ATOM     34  N   LYS     4      61.915  39.447  52.987  1.00  0.00    -0.338 N 
ATOM     35  H   LYS     4      61.860  38.654  52.378  1.00 99.99     0.164 HD
BRANCH  34  36
ATOM     36  CA  LYS     4      63.293  39.795  53.410  1.00  0.00     0.159 C 
BRANCH  36  37
ATOM     37  CB  LYS     4      63.795  38.786  54.459  1.00  0.00     0.032 C 
BRANCH  37  38
ATOM     38  CG  LYS     4      64.301  39.482  55.728  1.00  0.00     0.004 C 
BRANCH  38  39
ATOM     39  CD  LYS     4      64.070  40.994  55.690  1.00  0.00     0.032 C 
BRANCH  39  40
ATOM     40  CE  LYS     4      63.347  41.448  56.962  1.00  0.00     0.206 C 
BRANCH  40  41
ATOM     41  NZ  LYS     4      62.059  40.760  57.131  1.00  0.00    -0.064 N 
ATOM     42  HZ1 LYS     4      62.198  39.773  57.059  1.00 99.99     0.275 HD
ATOM     43  HZ3 LYS     4      61.423  41.059  56.418  1.00 99.99     0.275 HD
ATOM     44  HZ2 LYS     4      61.681  40.979  58.029  1.00 99.99     0.275 HD
ENDBRANCH  40  41
ENDBRANCH  39  40
ENDBRANCH  38  39
ENDBRANCH  37  38
ENDBRANCH  36  37
BRANCH  36  45
ATOM     45  C   LYS     4      64.209  39.865  52.169  1.00  0.00     0.251 C 
ATOM     46  O   LYS     4      65.267  39.240  52.085  1.00  0.00    -0.271 OA
ATOM     47  N   ILE     5      63.674  40.515  51.140  1.00  0.00    -0.338 N 
ATOM     48  H   ILE     5      62.804  40.996  51.229  1.00 99.99     0.164 HD
BRANCH  47  49
ATOM     49  CA  ILE     5      64.326  40.687  49.820  1.00  0.00     0.159 C 
BRANCH  49  50
ATOM     50  C   ILE     5      64.030  42.071  49.219  1.00  0.00     0.251 C 
ATOM     51  N   ARG     6      64.752  42.426  48.164  1.00  0.00    -0.338 N 
ATOM     52  H   ARG     6      65.487  41.850  47.803  1.00 99.99     0.164 HD
ATOM     53  O   ILE     5      63.148  42.786  49.710  1.00  0.00    -0.271 OA
BRANCH  51  54
ATOM     54  CA  ARG     6      64.536  43.681  47.413  1.00  0.00     0.159 C 
BRANCH  54  55
ATOM     55  C   ARG     6      64.121  43.377  45.969  1.00  0.00     0.251 C 
ATOM     56  N   ILE     7      62.912  42.860  45.845  1.00  0.00    -0.338 N 
ATOM     57  H   ILE     7      62.321  42.729  46.644  1.00 99.99     0.164 HD
ATOM     58  O   ARG     6      64.940  43.442  45.042  1.00  0.00    -0.271 OA
BRANCH  56  59
ATOM     59  CA  ILE     7      62.292  42.469  44.561  1.00  0.00     0.159 C 
BRANCH  59  60
ATOM     60  C   ILE     7      60.777  42.781  44.558  1.00  0.00     0.251 C 
ATOM     61  O   ILE     7      60.210  43.091  43.502  1.00  0.00    -0.271 OA
ATOM     62  N   LYS     8      60.125  42.502  45.683  1.00  0.00    -0.336 N 
ATOM     63  H   LYS     8      60.531  41.895  46.363  1.00 99.99     0.164 HD
BRANCH  62  64
ATOM     64  CA  LYS     8      58.758  42.982  46.026  1.00  0.00     0.168 C 
BRANCH  64  65
ATOM     65  CB  LYS     8      57.793  41.806  46.220  1.00  0.00     0.033 C 
BRANCH  65  66
ATOM     66  CG  LYS     8      57.633  40.616  45.254  1.00  0.00     0.004 C 
BRANCH  66  67
ATOM     67  CD  LYS     8      57.166  41.227  43.930  1.00  0.00     0.032 C 
BRANCH  67  68
ATOM     68  CE  LYS     8      57.950  40.735  42.712  1.00  0.00     0.206 C 
BRANCH  68  69
ATOM     69  NZ  LYS     8      57.907  41.747  41.644  1.00  0.00    -0.064 N 
ATOM     70  HZ1 LYS     8      58.528  42.496  41.872  1.00 99.99     0.275 HD
ATOM     71  HZ2 LYS     8      58.189  41.329  40.780  1.00 99.99     0.275 HD
ATOM     72  HZ3 LYS     8      56.975  42.100  41.553  1.00 99.99     0.275 HD
ENDBRANCH  68  69
ENDBRANCH  67  68
ENDBRANCH  66  67
ENDBRANCH  65  66
ENDBRANCH  64  65
BRANCH  64  73
ATOM     73  C   LYS     8      58.796  43.790  47.380  1.00  0.00     0.206 C 
ATOM     74  O   LYS     8      59.919  43.906  47.915  1.00 99.99    -0.646 OA
ATOM     75  OXT LYS     8      57.797  44.408  47.827  1.00 99.99    -0.646 OA
ENDBRANCH  64  73
ENDBRANCH  62  64
ENDBRANCH  59  60
BRANCH  59  76
ATOM     76  CB  ILE     7      62.639  40.977  44.326  1.00  0.00     0.029 C 
ATOM     77  CG2 ILE     7      61.473  40.043  44.706  1.00  0.00     0.002 C 
BRANCH  76  78
ATOM     78  CG1 ILE     7      63.161  40.738  42.899  1.00  0.00     0.002 C 
ATOM     79  CD  ILE     7      63.691  41.996  42.196  1.00  0.00     0.000 C 
ENDBRANCH  76  78
ENDBRANCH  59  76
ENDBRANCH  56  59
ENDBRANCH  54  55
BRANCH  54  80
ATOM     80  CB  ARG     6      65.796  44.551  47.394  1.00  0.00     0.034 C 
BRANCH  80  81
ATOM     81  CG  ARG     6      66.583  44.543  48.704  1.00  0.00     0.027 C 
BRANCH  81  82
ATOM     82  CD  ARG     6      66.171  45.774  49.506  1.00  0.00     0.116 C 
BRANCH  82  83
ATOM     83  NE  ARG     6      64.958  45.507  50.305  1.00  0.00    -0.212 N 
ATOM     84  HE  ARG     6      65.031  44.743  50.943  1.00 99.99     0.178 HD
ATOM     85  CZ  ARG     6      63.812  46.175  50.222  1.00  0.00     0.666 C 
ATOM     86  NH2 ARG     6      62.795  45.868  51.020  1.00  0.00    -0.235 N 
ATOM     87  NH1 ARG     6      63.641  47.185  49.373  1.00  0.00    -0.235 N 
ATOM     88 1HH2 ARG     6      61.944  46.379  50.948  1.00 99.99     0.174 HD
ATOM     89 2HH2 ARG     6      62.886  45.133  51.690  1.00 99.99     0.174 HD
ATOM     90 2HH1 ARG     6      64.403  47.443  48.779  1.00 99.99     0.174 HD
ATOM     91 1HH1 ARG     6      62.776  47.674  49.328  1.00 99.99     0.174 HD
ENDBRANCH  82  83
ENDBRANCH  81  82
ENDBRANCH  80  81
ENDBRANCH  54  80
ENDBRANCH  51  54
ENDBRANCH  49  50
BRANCH  49  92
ATOM     92  CB  ILE     5      63.929  39.561  48.838  1.00  0.00     0.029 C 
ATOM     93  CG2 ILE     5      62.459  39.733  48.420  1.00  0.00     0.002 C 
BRANCH  92  94
ATOM     94  CG1 ILE     5      64.896  39.447  47.643  1.00  0.00     0.002 C 
ATOM     95  CD  ILE     5      64.423  38.509  46.524  1.00  0.00     0.000 C 
ENDBRANCH  92  94
ENDBRANCH  49  92
ENDBRANCH  47  49
ENDBRANCH  36  45
ENDBRANCH  34  36
ENDBRANCH  27  32
ENDBRANCH  24  27
ENDBRANCH  10  23
ENDBRANCH   8  10
ENDBRANCH   5   6
BRANCH   5  96
ATOM     96  CB  ILE     1      54.267  41.101  49.716  1.00  0.00     0.037 C 
ATOM     97  CG2 ILE     1      52.743  40.878  49.740  1.00  0.00     0.002 C 
BRANCH  96  98
ATOM     98  CG1 ILE     1      54.795  40.993  48.273  1.00  0.00     0.002 C 
ATOM     99  CD  ILE     1      54.129  39.895  47.427  1.00  0.00     0.000 C 
ENDBRANCH  96  98
ENDBRANCH   5  96
ENDBRANCH   1   5
TORSDOF 42
ENDMDL
MODEL 9
REMARK VINA RESULT:      -4.8      2.541      5.431
REMARK WARNING: 32 MAX_TORS EXCEEDED!!!
REMARK  42 active torsions:
REMARK  status: ('A' for Active; 'I' for Inactive)
REMARK    1  A    between atoms: N_1  and  CA_2 
REMARK    2  A    between atoms: CA_2  and  C_3 
REMARK    3  A    between atoms: CA_2  and  CB_5 
REMARK       I    between atoms: C_3  and  N_12 
REMARK    4  A    between atoms: CB_5  and  CG1_6 
REMARK    5  A    between atoms: N_12  and  CA_13 
REMARK    6  A    between atoms: CA_13  and  CB_16 
REMARK    7  A    between atoms: CA_13  and  C_14 
REMARK       I    between atoms: C_14  and  N_29 
REMARK    8  A    between atoms: CB_16  and  CG_17 
REMARK    9  A    between atoms: CG_17  and  CD_18 
REMARK   10  A    between atoms: CD_18  and  NE_19 
REMARK       I    between atoms: NE_19  and  CZ_20 
REMARK       I    between atoms: CZ_20  and  NH2_22 
REMARK       I    between atoms: CZ_20  and  NH1_21 
REMARK   11  A    between atoms: N_29  and  CA_30 
REMARK   12  A    between atoms: CA_30  and  CB_33 
REMARK   13  A    between atoms: CA_30  and  C_31 
REMARK       I    between atoms: C_31  and  N_38 
REMARK   14  A    between atoms: CB_33  and  CG1_34 
REMARK   15  A    between atoms: N_38  and  CA_39 
REMARK   16  A    between atoms: CA_39  and  CB_42 
REMARK   17  A    between atoms: CA_39  and  C_40 
REMARK       I    between atoms: C_40  and  N_51 
REMARK   18  A    between atoms: CB_42  and  CG_43 
REMARK   19  A    between atoms: CG_43  and  CD_44 
REMARK   20  A    between atoms: CD_44  and  CE_45 
REMARK   21  A    between atoms: CE_45  and  NZ_46 
REMARK   22  A    between atoms: N_51  and  CA_52 
REMARK   23  A    between atoms: CA_52  and  C_53 
REMARK   24  A    between atoms: CA_52  and  CB_55 
REMARK       I    between atoms: C_53  and  N_60 
REMARK   25  A    between atoms: CB_55  and  CG1_56 
REMARK   26  A    between atoms: N_60  and  CA_61 
REMARK   27  A    between atoms: CA_61  and  C_62 
REMARK   28  A    between atoms: CA_61  and  CB_64 
REMARK       I    between atoms: C_62  and  N_77 
REMARK   29  A    between atoms: CB_64  and  CG_65 
REMARK   30  A    between atoms: CG_65  and  CD_66 
REMARK   31  A    between atoms: CD_66  and  NE_67 
REMARK       I    between atoms: NE_67  and  CZ_68 
REMARK       I    between atoms: CZ_68  and  NH1_69 
REMARK   32  A    between atoms: N_77  and  CA_78 
REMARK   33  A    between atoms: CA_78  and  C_79 
REMARK   34  A    between atoms: CA_78  and  CB_81 
REMARK       I    between atoms: C_79  and  N_86 
REMARK   35  A    between atoms: CB_81  and  CG1_82 
REMARK   36  A    between atoms: N_86  and  CA_87 
REMARK   37  A    between atoms: CA_87  and  CB_90 
REMARK   38  A    between atoms: CA_87  and  C_88 
REMARK   39  A    between atoms: CB_90  and  CG_91 
REMARK   40  A    between atoms: CG_91  and  CD_92 
REMARK   41  A    between atoms: CD_92  and  CE_93 
REMARK   42  A    between atoms: CE_93  and  NZ_94 
ROOT
ATOM      1  N   ILE     1      58.792  38.361  45.269  1.00  0.00    -0.058 N 
ATOM      2  H1  ILE     1      59.508  38.556  45.944  1.00 99.99     0.276 HD
ATOM      3  H2  ILE     1      58.547  37.405  45.339  1.00 99.99     0.276 HD
ATOM      4  H3  ILE     1      59.159  38.468  44.357  1.00 99.99     0.276 HD
ENDROOT
BRANCH   1   5
ATOM      5  CA  ILE     1      57.644  39.260  45.551  1.00  0.00     0.255 C 
BRANCH   5   6
ATOM      6  C   ILE     1      58.167  40.492  46.339  1.00  0.00     0.259 C 
ATOM      7  O   ILE     1      59.327  40.488  46.778  1.00  0.00    -0.271 OA
ATOM      8  N   ARG     2      57.368  41.539  46.479  1.00  0.00    -0.338 N 
ATOM      9  H   ARG     2      56.440  41.578  46.100  1.00 99.99     0.164 HD
BRANCH   8  10
ATOM     10  CA  ARG     2      57.756  42.748  47.245  1.00  0.00     0.159 C 
BRANCH  10  11
ATOM     11  CB  ARG     2      57.974  43.911  46.271  1.00  0.00     0.034 C 
BRANCH  11  12
ATOM     12  CG  ARG     2      59.357  43.888  45.612  1.00  0.00     0.027 C 
BRANCH  12  13
ATOM     13  CD  ARG     2      59.227  43.909  44.089  1.00  0.00     0.116 C 
BRANCH  13  14
ATOM     14  NE  ARG     2      58.324  42.826  43.658  1.00  0.00    -0.212 N 
ATOM     15  HE  ARG     2      57.491  42.729  44.198  1.00 99.99     0.178 HD
ATOM     16  CZ  ARG     2      58.525  41.984  42.639  1.00  0.00     0.666 C 
ATOM     17  NH2 ARG     2      57.621  41.053  42.358  1.00  0.00    -0.235 N 
ATOM     18  NH1 ARG     2      59.612  42.039  41.882  1.00  0.00    -0.235 N 
ATOM     19 1HH2 ARG     2      57.781  40.429  41.596  1.00 99.99     0.174 HD
ATOM     20 2HH2 ARG     2      56.790  40.973  42.902  1.00 99.99     0.174 HD
ATOM     21 2HH1 ARG     2      60.303  42.731  42.083  1.00 99.99     0.174 HD
ATOM     22 1HH1 ARG     2      59.740  41.398  41.128  1.00 99.99     0.174 HD
ENDBRANCH  13  14
ENDBRANCH  12  13
ENDBRANCH  11  12
ENDBRANCH  10  11
BRANCH  10  23
ATOM     23  C   ARG     2      56.669  43.072  48.283  1.00  0.00     0.251 C 
ATOM     24  N   ILE     3      56.279  42.054  49.043  1.00  0.00    -0.338 N 
ATOM     25  H   ILE     3      56.689  41.145  48.963  1.00 99.99     0.164 HD
ATOM     26  O   ARG     2      56.118  44.176  48.299  1.00  0.00    -0.271 OA
BRANCH  24  27
ATOM     27  CA  ILE     3      55.213  42.183  50.060  1.00  0.00     0.159 C 
BRANCH  27  28
ATOM     28  CB  ILE     3      54.315  40.929  50.110  1.00  0.00     0.029 C 
ATOM     29  CG2 ILE     3      52.889  41.312  49.686  1.00  0.00     0.002 C 
BRANCH  28  30
ATOM     30  CG1 ILE     3      54.894  39.751  49.302  1.00  0.00     0.002 C 
ATOM     31  CD  ILE     3      53.858  38.693  48.901  1.00  0.00     0.000 C 
ENDBRANCH  28  30
ENDBRANCH  27  28
BRANCH  27  32
ATOM     32  C   ILE     3      55.733  42.549  51.460  1.00  0.00     0.251 C 
ATOM     33  O   ILE     3      55.457  43.643  51.968  1.00  0.00    -0.271 OA
ATOM     34  N   LYS     4      56.333  41.560  52.106  1.00  0.00    -0.338 N 
ATOM     35  H   LYS     4      56.227  40.612  51.800  1.00 99.99     0.164 HD
BRANCH  34  36
ATOM     36  CA  LYS     4      57.088  41.711  53.373  1.00  0.00     0.159 C 
BRANCH  36  37
ATOM     37  CB  LYS     4      57.195  40.351  54.089  1.00  0.00     0.032 C 
BRANCH  37  38
ATOM     38  CG  LYS     4      56.398  39.259  53.365  1.00  0.00     0.004 C 
BRANCH  38  39
ATOM     39  CD  LYS     4      57.298  38.145  52.828  1.00  0.00     0.032 C 
BRANCH  39  40
ATOM     40  CE  LYS     4      56.713  36.776  53.189  1.00  0.00     0.206 C 
BRANCH  40  41
ATOM     41  NZ  LYS     4      56.604  35.904  52.011  1.00  0.00    -0.064 N 
ATOM     42  HZ1 LYS     4      55.820  36.187  51.459  1.00 99.99     0.275 HD
ATOM     43  HZ3 LYS     4      56.477  34.956  52.306  1.00 99.99     0.275 HD
ATOM     44  HZ2 LYS     4      57.438  35.975  51.466  1.00 99.99     0.275 HD
ENDBRANCH  40  41
ENDBRANCH  39  40
ENDBRANCH  38  39
ENDBRANCH  37  38
ENDBRANCH  36  37
BRANCH  36  45
ATOM     45  C   LYS     4      58.469  42.334  53.078  1.00  0.00     0.251 C 
ATOM     46  O   LYS     4      58.784  43.465  53.452  1.00  0.00    -0.271 OA
ATOM     47  N   ILE     5      59.341  41.485  52.543  1.00  0.00    -0.338 N 
ATOM     48  H   ILE     5      59.065  40.566  52.269  1.00 99.99     0.164 HD
BRANCH  47  49
ATOM     49  CA  ILE     5      60.746  41.818  52.206  1.00  0.00     0.159 C 
BRANCH  49  50
ATOM     50  C   ILE     5      60.882  42.281  50.746  1.00  0.00     0.251 C 
ATOM     51  N   ARG     6      61.743  43.263  50.513  1.00  0.00    -0.338 N 
ATOM     52  H   ARG     6      62.245  43.718  51.251  1.00 99.99     0.164 HD
ATOM     53  O   ILE     5      60.219  41.734  49.856  1.00  0.00    -0.271 OA
BRANCH  51  54
ATOM     54  CA  ARG     6      62.061  43.765  49.160  1.00  0.00     0.159 C 
BRANCH  54  55
ATOM     55  C   ARG     6      63.087  42.854  48.477  1.00  0.00     0.251 C 
ATOM     56  N   ILE     7      62.750  42.468  47.259  1.00  0.00    -0.338 N 
ATOM     57  H   ILE     7      61.907  42.794  46.827  1.00 99.99     0.164 HD
ATOM     58  O   ARG     6      64.044  42.385  49.107  1.00  0.00    -0.271 OA
BRANCH  56  59
ATOM     59  CA  ILE     7      63.564  41.578  46.404  1.00  0.00     0.159 C 
BRANCH  59  60
ATOM     60  C   ILE     7      64.683  42.369  45.687  1.00  0.00     0.251 C 
ATOM     61  O   ILE     7      64.565  43.588  45.512  1.00  0.00    -0.271 OA
ATOM     62  N   LYS     8      65.815  41.707  45.470  1.00  0.00    -0.336 N 
ATOM     63  H   LYS     8      66.011  40.866  45.971  1.00 99.99     0.164 HD
BRANCH  62  64
ATOM     64  CA  LYS     8      66.903  42.141  44.551  1.00  0.00     0.168 C 
BRANCH  64  65
ATOM     65  CB  LYS     8      68.233  42.288  45.301  1.00  0.00     0.033 C 
BRANCH  65  66
ATOM     66  CG  LYS     8      68.967  43.619  45.560  1.00  0.00     0.004 C 
BRANCH  66  67
ATOM     67  CD  LYS     8      70.407  43.387  45.094  1.00  0.00     0.032 C 
BRANCH  67  68
ATOM     68  CE  LYS     8      71.431  43.380  46.230  1.00  0.00     0.206 C 
BRANCH  68  69
ATOM     69  NZ  LYS     8      71.529  42.032  46.811  1.00  0.00    -0.064 N 
ATOM     70  HZ1 LYS     8      70.670  41.805  47.269  1.00 99.99     0.275 HD
ATOM     71  HZ2 LYS     8      71.705  41.369  46.083  1.00 99.99     0.275 HD
ATOM     72  HZ3 LYS     8      72.279  42.005  47.473  1.00 99.99     0.275 HD
ENDBRANCH  68  69
ENDBRANCH  67  68
ENDBRANCH  66  67
ENDBRANCH  65  66
ENDBRANCH  64  65
BRANCH  64  73
ATOM     73  C   LYS     8      67.117  41.060  43.422  1.00  0.00     0.206 C 
ATOM     74  O   LYS     8      68.301  40.736  43.194  1.00 99.99    -0.646 OA
ATOM     75  OXT LYS     8      66.161  40.447  42.883  1.00 99.99    -0.646 OA
ENDBRANCH  64  73
ENDBRANCH  62  64
ENDBRANCH  59  60
BRANCH  59  76
ATOM     76  CB  ILE     7      62.585  40.847  45.450  1.00  0.00     0.029 C 
ATOM     77  CG2 ILE     7      62.832  41.213  43.973  1.00  0.00     0.002 C 
BRANCH  76  78
ATOM     78  CG1 ILE     7      62.582  39.329  45.702  1.00  0.00     0.002 C 
ATOM     79  CD  ILE     7      63.935  38.755  46.144  1.00  0.00     0.000 C 
ENDBRANCH  76  78
ENDBRANCH  59  76
ENDBRANCH  56  59
ENDBRANCH  54  55
BRANCH  54  80
ATOM     80  CB  ARG     6      62.617  45.191  49.203  1.00  0.00     0.034 C 
BRANCH  80  81
ATOM     81  CG  ARG     6      63.378  45.529  50.485  1.00  0.00     0.027 C 
BRANCH  81  82
ATOM     82  CD  ARG     6      64.768  46.019  50.089  1.00  0.00     0.116 C 
BRANCH  82  83
ATOM     83  NE  ARG     6      65.672  44.885  49.812  1.00  0.00    -0.212 N 
ATOM     84  HE  ARG     6      65.860  44.292  50.593  1.00 99.99     0.178 HD
ATOM     85  CZ  ARG     6      66.247  44.620  48.644  1.00  0.00     0.666 C 
ATOM     86  NH2 ARG     6      67.016  43.546  48.501  1.00  0.00    -0.235 N 
ATOM     87  NH1 ARG     6      66.059  45.386  47.571  1.00  0.00    -0.235 N 
ATOM     88 1HH2 ARG     6      67.438  43.360  47.619  1.00 99.99     0.174 HD
ATOM     89 2HH2 ARG     6      67.167  42.929  49.271  1.00 99.99     0.174 HD
ATOM     90 2HH1 ARG     6      65.466  46.187  47.656  1.00 99.99     0.174 HD
ATOM     91 1HH1 ARG     6      66.497  45.169  46.706  1.00 99.99     0.174 HD
ENDBRANCH  82  83
ENDBRANCH  81  82
ENDBRANCH  80  81
ENDBRANCH  54  80
ENDBRANCH  51  54
ENDBRANCH  49  50
BRANCH  49  92
ATOM     92  CB  ILE     5      61.699  40.638  52.504  1.00  0.00     0.029 C 
ATOM     93  CG2 ILE     5      60.885  39.342  52.654  1.00  0.00     0.002 C 
BRANCH  92  94
ATOM     94  CG1 ILE     5      62.845  40.527  51.479  1.00  0.00     0.002 C 
ATOM     95  CD  ILE     5      62.848  39.229  50.661  1.00  0.00     0.000 C 
ENDBRANCH  92  94
ENDBRANCH  49  92
ENDBRANCH  47  49
ENDBRANCH  36  45
ENDBRANCH  34  36
ENDBRANCH  27  32
ENDBRANCH  24  27
ENDBRANCH  10  23
ENDBRANCH   8  10
ENDBRANCH   5   6
BRANCH   5  96
ATOM     96  CB  ILE     1      56.549  38.496  46.343  1.00  0.00     0.037 C 
ATOM     97  CG2 ILE     1      55.487  37.883  45.409  1.00  0.00     0.002 C 
BRANCH  96  98
ATOM     98  CG1 ILE     1      57.169  37.400  47.230  1.00  0.00     0.002 C 
ATOM     99  CD  ILE     1      56.534  36.009  47.069  1.00  0.00     0.000 C 
ENDBRANCH  96  98
ENDBRANCH   5  96
ENDBRANCH   1   5
TORSDOF 42
ENDMDL
