MODEL 1
REMARK VINA RESULT:      -4.2      0.000      0.000
REMARK WARNING: 32 MAX_TORS EXCEEDED!!!
REMARK  33 active torsions:
REMARK  status: ('A' for Active; 'I' for Inactive)
REMARK    1  A    between atoms: N_1  and  CA_2 
REMARK    2  A    between atoms: CA_2  and  C_3 
REMARK    3  A    between atoms: CA_2  and  CB_5 
REMARK       I    between atoms: C_3  and  N_16 
REMARK    4  A    between atoms: CB_5  and  CG_6 
REMARK    5  A    between atoms: CG_6  and  CD_7 
REMARK    6  A    between atoms: CD_7  and  CE_8 
REMARK    7  A    between atoms: CE_8  and  NZ_9 
REMARK    8  A    between atoms: N_16  and  CA_17 
REMARK    9  A    between atoms: CA_17  and  C_18 
REMARK   10  A    between atoms: CA_17  and  CB_20 
REMARK       I    between atoms: C_18  and  N_29 
REMARK   11  A    between atoms: CB_20  and  CG_21 
REMARK   12  A    between atoms: CG_21  and  CD_22 
REMARK   13  A    between atoms: CD_22  and  CE_23 
REMARK   14  A    between atoms: CE_23  and  NZ_24 
REMARK   15  A    between atoms: N_29  and  CA_30 
REMARK   16  A    between atoms: CA_30  and  C_31 
REMARK   17  A    between atoms: CA_30  and  CB_33 
REMARK       I    between atoms: C_31  and  N_38 
REMARK   18  A    between atoms: CB_33  and  CG_34 
REMARK   19  A    between atoms: N_38  and  CA_39 
REMARK   20  A    between atoms: CA_39  and  C_40 
REMARK   21  A    between atoms: CA_39  and  CB_42 
REMARK       I    between atoms: C_40  and  N_51 
REMARK   22  A    between atoms: CB_42  and  CG_43 
REMARK   23  A    between atoms: CG_43  and  CD_44 
REMARK   24  A    between atoms: CD_44  and  CE_45 
REMARK   25  A    between atoms: CE_45  and  NZ_46 
REMARK   26  A    between atoms: N_51  and  CA_52 
REMARK   27  A    between atoms: CA_52  and  C_53 
REMARK       I    between atoms: C_53  and  N_57 
REMARK   28  A    between atoms: N_57  and  CA_58 
REMARK   29  A    between atoms: CA_58  and  C_59 
REMARK   30  A    between atoms: CA_58  and  CB_61 
REMARK       I    between atoms: C_59  and  N_69 
REMARK   31  A    between atoms: CB_61  and  CG_62 
REMARK   32  A    between atoms: N_69  and  CA_70 
REMARK   33  A    between atoms: CA_70  and  C_71 
ROOT
ATOM      1  N   LYS     1      65.467  40.591  50.180  1.00  0.00    -0.058 N 
ATOM      2  H1  LYS     1      65.582  40.808  49.212  1.00 99.99     0.276 HD
ATOM      3  H2  LYS     1      65.464  41.420  50.703  1.00 99.99     0.276 HD
ATOM      4  H3  LYS     1      66.271  40.091  50.480  1.00 99.99     0.276 HD
ENDROOT
BRANCH   1   5
ATOM      5  CA  LYS     1      64.232  39.790  50.345  1.00  0.00     0.255 C 
BRANCH   5   6
ATOM      6  C   LYS     1      63.054  40.776  50.533  1.00  0.00     0.259 C 
ATOM      7  O   LYS     1      62.147  40.673  49.712  1.00  0.00    -0.271 OA
ATOM      8  N   LYS     2      63.256  41.898  51.246  1.00  0.00    -0.338 N 
ATOM      9  H   LYS     2      64.150  42.090  51.649  1.00 99.99     0.164 HD
BRANCH   8  10
ATOM     10  CA  LYS     2      62.231  42.928  51.571  1.00  0.00     0.159 C 
BRANCH  10  11
ATOM     11  C   LYS     2      60.813  42.424  51.922  1.00  0.00     0.251 C 
ATOM     12  N   LEU     3      59.967  42.186  50.910  1.00  0.00    -0.338 N 
ATOM     13  H   LEU     3      60.195  42.445  49.974  1.00 99.99     0.164 HD
ATOM     14  O   LYS     2      60.539  42.203  53.099  1.00  0.00    -0.271 OA
BRANCH  12  15
ATOM     15  CA  LEU     3      58.614  41.598  51.057  1.00  0.00     0.159 C 
BRANCH  15  16
ATOM     16  C   LEU     3      58.531  40.117  50.623  1.00  0.00     0.251 C 
ATOM     17  N   LYS     4      59.250  39.779  49.547  1.00  0.00    -0.338 N 
ATOM     18  H   LYS     4      59.853  40.451  49.116  1.00 99.99     0.164 HD
ATOM     19  O   LEU     3      58.114  39.299  51.438  1.00  0.00    -0.271 OA
BRANCH  17  20
ATOM     20  CA  LYS     4      59.345  38.430  48.934  1.00  0.00     0.159 C 
BRANCH  20  21
ATOM     21  C   LYS     4      60.745  37.942  48.481  1.00  0.00     0.251 C 
ATOM     22  N   ALA     5      61.308  38.607  47.475  1.00  0.00    -0.338 N 
ATOM     23  H   ALA     5      60.780  39.276  46.949  1.00 99.99     0.164 HD
ATOM     24  O   LYS     4      61.230  36.909  48.938  1.00  0.00    -0.271 OA
BRANCH  22  25
ATOM     25  CA  ALA     5      62.687  38.403  46.979  1.00  0.00     0.159 C 
ATOM     26  CB  ALA     5      62.620  37.354  45.864  1.00  0.00     0.034 C 
BRANCH  25  27
ATOM     27  C   ALA     5      63.358  39.703  46.472  1.00  0.00     0.251 C 
ATOM     28  N   PHE     6      62.836  40.832  46.945  1.00  0.00    -0.337 N 
ATOM     29  H   PHE     6      61.990  40.802  47.478  1.00 99.99     0.164 HD
ATOM     30  O   ALA     5      64.255  39.678  45.632  1.00  0.00    -0.271 OA
BRANCH  28  31
ATOM     31  CA  PHE     6      63.297  42.204  46.648  1.00  0.00     0.164 C 
BRANCH  31  32
ATOM     32  C   PHE     6      64.666  42.505  47.300  1.00  0.00     0.251 C 
ATOM     33  O   PHE     6      64.745  42.826  48.484  1.00  0.00    -0.271 OA
ATOM     34  N   ALA     7      65.727  42.345  46.505  1.00  0.00    -0.336 N 
ATOM     35  H   ALA     7      65.602  41.993  45.574  1.00 99.99     0.164 HD
BRANCH  34  36
ATOM     36  CA  ALA     7      67.148  42.580  46.853  1.00  0.00     0.168 C 
ATOM     37  CB  ALA     7      68.021  41.458  46.277  1.00  0.00     0.036 C 
BRANCH  36  38
ATOM     38  C   ALA     7      67.627  43.918  46.255  1.00  0.00     0.206 C 
ATOM     39  O   ALA     7      66.850  44.894  46.313  1.00 99.99    -0.646 OA
ATOM     40  OXT ALA     7      68.701  43.882  45.610  1.00 99.99    -0.646 OA
ENDBRANCH  36  38
ENDBRANCH  34  36
ENDBRANCH  31  32
BRANCH  31  41
ATOM     41  CB  PHE     6      62.199  43.152  47.154  1.00  0.00     0.056 C 
BRANCH  41  42
ATOM     42  CG  PHE     6      60.931  43.147  46.301  1.00  0.00    -0.044 A 
ATOM     43  CD2 PHE     6      61.039  43.050  44.919  1.00  0.00     0.008 A 
ATOM     44  CE2 PHE     6      59.896  43.033  44.132  1.00  0.00     0.001 A 
ATOM     45  CZ  PHE     6      58.643  43.118  44.725  1.00  0.00     0.000 A 
ATOM     46  CE1 PHE     6      58.534  43.213  46.108  1.00  0.00     0.001 A 
ATOM     47  CD1 PHE     6      59.678  43.240  46.896  1.00  0.00     0.008 A 
ENDBRANCH  41  42
ENDBRANCH  31  41
ENDBRANCH  28  31
ENDBRANCH  25  27
ENDBRANCH  22  25
ENDBRANCH  20  21
BRANCH  20  48
ATOM     48  CB  LYS     4      58.410  38.370  47.718  1.00  0.00     0.032 C 
BRANCH  48  49
ATOM     49  CG  LYS     4      58.044  39.726  47.112  1.00  0.00     0.004 C 
BRANCH  49  50
ATOM     50  CD  LYS     4      56.575  40.016  47.428  1.00  0.00     0.032 C 
BRANCH  50  51
ATOM     51  CE  LYS     4      55.852  38.792  47.992  1.00  0.00     0.206 C 
BRANCH  51  52
ATOM     52  NZ  LYS     4      55.236  39.101  49.292  1.00  0.00    -0.064 N 
ATOM     53  HZ1 LYS     4      55.644  38.525  50.000  1.00 99.99     0.275 HD
ATOM     54  HZ2 LYS     4      55.381  40.063  49.520  1.00 99.99     0.275 HD
ATOM     55  HZ3 LYS     4      54.253  38.917  49.245  1.00 99.99     0.275 HD
ENDBRANCH  51  52
ENDBRANCH  50  51
ENDBRANCH  49  50
ENDBRANCH  48  49
ENDBRANCH  20  48
ENDBRANCH  17  20
ENDBRANCH  15  16
BRANCH  15  56
ATOM     56  CB  LEU     3      57.609  42.476  50.291  1.00  0.00     0.032 C 
BRANCH  56  57
ATOM     57  CG  LEU     3      56.162  42.386  50.801  1.00  0.00     0.002 C 
ATOM     58  CD2 LEU     3      55.192  42.721  49.666  1.00  0.00     0.000 C 
ATOM     59  CD1 LEU     3      55.920  43.318  51.992  1.00  0.00     0.000 C 
ENDBRANCH  56  57
ENDBRANCH  15  56
ENDBRANCH  12  15
ENDBRANCH  10  11
BRANCH  10  60
ATOM     60  CB  LYS     2      62.204  44.053  50.520  1.00  0.00     0.032 C 
BRANCH  60  61
ATOM     61  CG  LYS     2      62.948  45.297  51.028  1.00  0.00     0.004 C 
BRANCH  61  62
ATOM     62  CD  LYS     2      63.268  46.318  49.934  1.00  0.00     0.032 C 
BRANCH  62  63
ATOM     63  CE  LYS     2      64.775  46.335  49.658  1.00  0.00     0.206 C 
BRANCH  63  64
ATOM     64  NZ  LYS     2      65.105  45.816  48.321  1.00  0.00    -0.064 N 
ATOM     65  HZ3 LYS     2      64.908  46.511  47.630  1.00 99.99     0.275 HD
ATOM     66  HZ1 LYS     2      66.078  45.585  48.286  1.00 99.99     0.275 HD
ATOM     67  HZ2 LYS     2      64.567  44.995  48.135  1.00 99.99     0.275 HD
ENDBRANCH  63  64
ENDBRANCH  62  63
ENDBRANCH  61  62
ENDBRANCH  60  61
ENDBRANCH  10  60
ENDBRANCH   8  10
ENDBRANCH   5   6
BRANCH   5  68
ATOM     68  CB  LYS     1      64.354  38.690  51.427  1.00  0.00     0.040 C 
BRANCH  68  69
ATOM     69  CG  LYS     1      65.322  39.090  52.556  1.00  0.00     0.004 C 
BRANCH  69  70
ATOM     70  CD  LYS     1      64.640  39.369  53.907  1.00  0.00     0.032 C 
BRANCH  70  71
ATOM     71  CE  LYS     1      65.407  40.429  54.712  1.00  0.00     0.206 C 
BRANCH  71  72
ATOM     72  NZ  LYS     1      66.822  40.563  54.319  1.00  0.00    -0.064 N 
ATOM     73  HZ1 LYS     1      66.877  40.824  53.353  1.00 99.99     0.275 HD
ATOM     74  HZ2 LYS     1      67.265  41.272  54.868  1.00 99.99     0.275 HD
ATOM     75  HZ3 LYS     1      67.301  39.695  54.446  1.00 99.99     0.275 HD
ENDBRANCH  71  72
ENDBRANCH  70  71
ENDBRANCH  69  70
ENDBRANCH  68  69
ENDBRANCH   5  68
ENDBRANCH   1   5
TORSDOF 33
ENDMDL
MODEL 2
REMARK VINA RESULT:      -4.1      2.771      7.376
REMARK WARNING: 32 MAX_TORS EXCEEDED!!!
REMARK  33 active torsions:
REMARK  status: ('A' for Active; 'I' for Inactive)
REMARK    1  A    between atoms: N_1  and  CA_2 
REMARK    2  A    between atoms: CA_2  and  C_3 
REMARK    3  A    between atoms: CA_2  and  CB_5 
REMARK       I    between atoms: C_3  and  N_16 
REMARK    4  A    between atoms: CB_5  and  CG_6 
REMARK    5  A    between atoms: CG_6  and  CD_7 
REMARK    6  A    between atoms: CD_7  and  CE_8 
REMARK    7  A    between atoms: CE_8  and  NZ_9 
REMARK    8  A    between atoms: N_16  and  CA_17 
REMARK    9  A    between atoms: CA_17  and  C_18 
REMARK   10  A    between atoms: CA_17  and  CB_20 
REMARK       I    between atoms: C_18  and  N_29 
REMARK   11  A    between atoms: CB_20  and  CG_21 
REMARK   12  A    between atoms: CG_21  and  CD_22 
REMARK   13  A    between atoms: CD_22  and  CE_23 
REMARK   14  A    between atoms: CE_23  and  NZ_24 
REMARK   15  A    between atoms: N_29  and  CA_30 
REMARK   16  A    between atoms: CA_30  and  C_31 
REMARK   17  A    between atoms: CA_30  and  CB_33 
REMARK       I    between atoms: C_31  and  N_38 
REMARK   18  A    between atoms: CB_33  and  CG_34 
REMARK   19  A    between atoms: N_38  and  CA_39 
REMARK   20  A    between atoms: CA_39  and  C_40 
REMARK   21  A    between atoms: CA_39  and  CB_42 
REMARK       I    between atoms: C_40  and  N_51 
REMARK   22  A    between atoms: CB_42  and  CG_43 
REMARK   23  A    between atoms: CG_43  and  CD_44 
REMARK   24  A    between atoms: CD_44  and  CE_45 
REMARK   25  A    between atoms: CE_45  and  NZ_46 
REMARK   26  A    between atoms: N_51  and  CA_52 
REMARK   27  A    between atoms: CA_52  and  C_53 
REMARK       I    between atoms: C_53  and  N_57 
REMARK   28  A    between atoms: N_57  and  CA_58 
REMARK   29  A    between atoms: CA_58  and  C_59 
REMARK   30  A    between atoms: CA_58  and  CB_61 
REMARK       I    between atoms: C_59  and  N_69 
REMARK   31  A    between atoms: CB_61  and  CG_62 
REMARK   32  A    between atoms: N_69  and  CA_70 
REMARK   33  A    between atoms: CA_70  and  C_71 
ROOT
ATOM      1  N   LYS     1      58.840  43.718  46.721  1.00  0.00    -0.058 N 
ATOM      2  H1  LYS     1      58.890  44.419  46.012  1.00 99.99     0.276 HD
ATOM      3  H2  LYS     1      59.010  44.125  47.597  1.00 99.99     0.276 HD
ATOM      4  H3  LYS     1      59.590  43.082  46.576  1.00 99.99     0.276 HD
ENDROOT
BRANCH   1   5
ATOM      5  CA  LYS     1      57.525  43.043  46.634  1.00  0.00     0.255 C 
BRANCH   5   6
ATOM      6  C   LYS     1      56.670  43.523  47.832  1.00  0.00     0.259 C 
ATOM      7  O   LYS     1      56.896  44.669  48.212  1.00  0.00    -0.271 OA
ATOM      8  N   LYS     2      56.088  42.604  48.622  1.00  0.00    -0.338 N 
ATOM      9  H   LYS     2      56.203  41.629  48.436  1.00 99.99     0.164 HD
BRANCH   8  10
ATOM     10  CA  LYS     2      55.195  42.882  49.780  1.00  0.00     0.159 C 
BRANCH  10  11
ATOM     11  C   LYS     2      55.840  42.879  51.184  1.00  0.00     0.251 C 
ATOM     12  N   LEU     3      56.833  42.009  51.414  1.00  0.00    -0.338 N 
ATOM     13  H   LEU     3      57.062  41.301  50.750  1.00 99.99     0.164 HD
ATOM     14  O   LYS     2      55.466  43.710  52.008  1.00  0.00    -0.271 OA
BRANCH  12  15
ATOM     15  CA  LEU     3      57.634  41.945  52.659  1.00  0.00     0.159 C 
BRANCH  15  16
ATOM     16  C   LEU     3      59.124  42.301  52.457  1.00  0.00     0.251 C 
ATOM     17  N   LYS     4      59.699  41.817  51.351  1.00  0.00    -0.338 N 
ATOM     18  H   LYS     4      59.150  41.319  50.678  1.00 99.99     0.164 HD
ATOM     19  O   LEU     3      59.586  43.239  53.100  1.00  0.00    -0.271 OA
BRANCH  17  20
ATOM     20  CA  LYS     4      61.107  42.016  50.925  1.00  0.00     0.159 C 
BRANCH  20  21
ATOM     21  C   LYS     4      61.419  43.232  50.015  1.00  0.00     0.251 C 
ATOM     22  N   ALA     5      62.266  44.135  50.503  1.00  0.00    -0.338 N 
ATOM     23  H   ALA     5      62.550  44.100  51.464  1.00 99.99     0.164 HD
ATOM     24  O   LYS     4      60.802  43.410  48.967  1.00  0.00    -0.271 OA
BRANCH  22  25
ATOM     25  CA  ALA     5      62.808  45.292  49.757  1.00  0.00     0.159 C 
ATOM     26  CB  ALA     5      63.324  46.300  50.789  1.00  0.00     0.034 C 
BRANCH  25  27
ATOM     27  C   ALA     5      63.925  44.910  48.756  1.00  0.00     0.251 C 
ATOM     28  N   PHE     6      63.576  44.021  47.828  1.00  0.00    -0.337 N 
ATOM     29  H   PHE     6      62.691  43.559  47.893  1.00 99.99     0.164 HD
ATOM     30  O   ALA     5      65.069  45.346  48.871  1.00  0.00    -0.271 OA
BRANCH  28  31
ATOM     31  CA  PHE     6      64.434  43.504  46.742  1.00  0.00     0.164 C 
BRANCH  31  32
ATOM     32  C   PHE     6      63.603  43.047  45.521  1.00  0.00     0.251 C 
ATOM     33  O   PHE     6      62.382  43.183  45.501  1.00  0.00    -0.271 OA
ATOM     34  N   ALA     7      64.309  42.554  44.500  1.00  0.00    -0.336 N 
ATOM     35  H   ALA     7      65.311  42.555  44.542  1.00 99.99     0.164 HD
BRANCH  34  36
ATOM     36  CA  ALA     7      63.780  42.025  43.221  1.00  0.00     0.168 C 
ATOM     37  CB  ALA     7      64.874  42.063  42.146  1.00  0.00     0.036 C 
BRANCH  36  38
ATOM     38  C   ALA     7      63.328  40.562  43.397  1.00  0.00     0.206 C 
ATOM     39  O   ALA     7      64.205  39.673  43.366  1.00 99.99    -0.646 OA
ATOM     40  OXT ALA     7      62.091  40.361  43.396  1.00 99.99    -0.646 OA
ENDBRANCH  36  38
ENDBRANCH  34  36
ENDBRANCH  31  32
BRANCH  31  41
ATOM     41  CB  PHE     6      65.252  42.351  47.344  1.00  0.00     0.056 C 
BRANCH  41  42
ATOM     42  CG  PHE     6      66.752  42.443  47.068  1.00  0.00    -0.044 A 
ATOM     43  CD2 PHE     6      67.268  43.588  46.476  1.00  0.00     0.008 A 
ATOM     44  CE2 PHE     6      68.630  43.690  46.229  1.00  0.00     0.001 A 
ATOM     45  CZ  PHE     6      69.478  42.644  46.570  1.00  0.00     0.000 A 
ATOM     46  CE1 PHE     6      68.962  41.497  47.164  1.00  0.00     0.001 A 
ATOM     47  CD1 PHE     6      67.598  41.390  47.402  1.00  0.00     0.008 A 
ENDBRANCH  41  42
ENDBRANCH  31  41
ENDBRANCH  28  31
ENDBRANCH  25  27
ENDBRANCH  22  25
ENDBRANCH  20  21
BRANCH  20  48
ATOM     48  CB  LYS     4      61.591  40.752  50.202  1.00  0.00     0.032 C 
BRANCH  48  49
ATOM     49  CG  LYS     4      60.584  40.131  49.233  1.00  0.00     0.004 C 
BRANCH  49  50
ATOM     50  CD  LYS     4      61.328  39.145  48.328  1.00  0.00     0.032 C 
BRANCH  50  51
ATOM     51  CE  LYS     4      60.879  39.247  46.869  1.00  0.00     0.206 C 
BRANCH  51  52
ATOM     52  NZ  LYS     4      61.107  40.603  46.347  1.00  0.00    -0.064 N 
ATOM     53  HZ1 LYS     4      61.795  40.570  45.621  1.00 99.99     0.275 HD
ATOM     54  HZ2 LYS     4      60.255  40.978  45.982  1.00 99.99     0.275 HD
ATOM     55  HZ3 LYS     4      61.438  41.192  47.085  1.00 99.99     0.275 HD
ENDBRANCH  51  52
ENDBRANCH  50  51
ENDBRANCH  49  50
ENDBRANCH  48  49
ENDBRANCH  20  48
ENDBRANCH  17  20
ENDBRANCH  15  16
BRANCH  15  56
ATOM     56  CB  LEU     3      57.458  40.551  53.288  1.00  0.00     0.032 C 
BRANCH  56  57
ATOM     57  CG  LEU     3      57.052  39.449  52.297  1.00  0.00     0.002 C 
ATOM     58  CD2 LEU     3      55.912  38.616  52.887  1.00  0.00     0.000 C 
ATOM     59  CD1 LEU     3      58.234  38.544  51.938  1.00  0.00     0.000 C 
ENDBRANCH  56  57
ENDBRANCH  15  56
ENDBRANCH  12  15
ENDBRANCH  10  11
BRANCH  10  60
ATOM     60  CB  LYS     2      53.915  42.027  49.728  1.00  0.00     0.032 C 
BRANCH  60  61
ATOM     61  CG  LYS     2      54.198  40.587  50.180  1.00  0.00     0.004 C 
BRANCH  61  62
ATOM     62  CD  LYS     2      53.703  39.520  49.200  1.00  0.00     0.032 C 
BRANCH  62  63
ATOM     63  CE  LYS     2      54.797  39.202  48.177  1.00  0.00     0.206 C 
BRANCH  63  64
ATOM     64  NZ  LYS     2      56.129  39.102  48.794  1.00  0.00    -0.064 N 
ATOM     65  HZ3 LYS     2      56.453  38.157  48.750  1.00 99.99     0.275 HD
ATOM     66  HZ1 LYS     2      56.769  39.691  48.299  1.00 99.99     0.275 HD
ATOM     67  HZ2 LYS     2      56.083  39.398  49.748  1.00 99.99     0.275 HD
ENDBRANCH  63  64
ENDBRANCH  62  63
ENDBRANCH  61  62
ENDBRANCH  60  61
ENDBRANCH  10  60
ENDBRANCH   8  10
ENDBRANCH   5   6
BRANCH   5  68
ATOM     68  CB  LYS     1      57.632  41.508  46.470  1.00  0.00     0.040 C 
BRANCH  68  69
ATOM     69  CG  LYS     1      56.705  40.976  45.361  1.00  0.00     0.004 C 
BRANCH  69  70
ATOM     70  CD  LYS     1      57.442  40.451  44.117  1.00  0.00     0.032 C 
BRANCH  70  71
ATOM     71  CE  LYS     1      58.130  41.592  43.352  1.00  0.00     0.206 C 
BRANCH  71  72
ATOM     72  NZ  LYS     1      57.661  41.741  41.962  1.00  0.00    -0.064 N 
ATOM     73  HZ1 LYS     1      57.209  42.629  41.854  1.00 99.99     0.275 HD
ATOM     74  HZ2 LYS     1      58.437  41.698  41.332  1.00 99.99     0.275 HD
ATOM     75  HZ3 LYS     1      57.009  41.018  41.737  1.00 99.99     0.275 HD
ENDBRANCH  71  72
ENDBRANCH  70  71
ENDBRANCH  69  70
ENDBRANCH  68  69
ENDBRANCH   5  68
ENDBRANCH   1   5
TORSDOF 33
ENDMDL
MODEL 3
REMARK VINA RESULT:      -4.1      3.369      6.714
REMARK WARNING: 32 MAX_TORS EXCEEDED!!!
REMARK  33 active torsions:
REMARK  status: ('A' for Active; 'I' for Inactive)
REMARK    1  A    between atoms: N_1  and  CA_2 
REMARK    2  A    between atoms: CA_2  and  C_3 
REMARK    3  A    between atoms: CA_2  and  CB_5 
REMARK       I    between atoms: C_3  and  N_16 
REMARK    4  A    between atoms: CB_5  and  CG_6 
REMARK    5  A    between atoms: CG_6  and  CD_7 
REMARK    6  A    between atoms: CD_7  and  CE_8 
REMARK    7  A    between atoms: CE_8  and  NZ_9 
REMARK    8  A    between atoms: N_16  and  CA_17 
REMARK    9  A    between atoms: CA_17  and  C_18 
REMARK   10  A    between atoms: CA_17  and  CB_20 
REMARK       I    between atoms: C_18  and  N_29 
REMARK   11  A    between atoms: CB_20  and  CG_21 
REMARK   12  A    between atoms: CG_21  and  CD_22 
REMARK   13  A    between atoms: CD_22  and  CE_23 
REMARK   14  A    between atoms: CE_23  and  NZ_24 
REMARK   15  A    between atoms: N_29  and  CA_30 
REMARK   16  A    between atoms: CA_30  and  C_31 
REMARK   17  A    between atoms: CA_30  and  CB_33 
REMARK       I    between atoms: C_31  and  N_38 
REMARK   18  A    between atoms: CB_33  and  CG_34 
REMARK   19  A    between atoms: N_38  and  CA_39 
REMARK   20  A    between atoms: CA_39  and  C_40 
REMARK   21  A    between atoms: CA_39  and  CB_42 
REMARK       I    between atoms: C_40  and  N_51 
REMARK   22  A    between atoms: CB_42  and  CG_43 
REMARK   23  A    between atoms: CG_43  and  CD_44 
REMARK   24  A    between atoms: CD_44  and  CE_45 
REMARK   25  A    between atoms: CE_45  and  NZ_46 
REMARK   26  A    between atoms: N_51  and  CA_52 
REMARK   27  A    between atoms: CA_52  and  C_53 
REMARK       I    between atoms: C_53  and  N_57 
REMARK   28  A    between atoms: N_57  and  CA_58 
REMARK   29  A    between atoms: CA_58  and  C_59 
REMARK   30  A    between atoms: CA_58  and  CB_61 
REMARK       I    between atoms: C_59  and  N_69 
REMARK   31  A    between atoms: CB_61  and  CG_62 
REMARK   32  A    between atoms: N_69  and  CA_70 
REMARK   33  A    between atoms: CA_70  and  C_71 
ROOT
ATOM      1  N   LYS     1      62.900  45.372  51.325  1.00  0.00    -0.058 N 
ATOM      2  H1  LYS     1      62.281  45.173  52.084  1.00 99.99     0.276 HD
ATOM      3  H2  LYS     1      63.828  45.256  51.621  1.00 99.99     0.276 HD
ATOM      4  H3  LYS     1      62.812  46.337  51.104  1.00 99.99     0.276 HD
ENDROOT
BRANCH   1   5
ATOM      5  CA  LYS     1      62.540  44.511  50.176  1.00  0.00     0.255 C 
BRANCH   5   6
ATOM      6  C   LYS     1      62.390  43.064  50.702  1.00  0.00     0.259 C 
ATOM      7  O   LYS     1      61.960  42.251  49.888  1.00  0.00    -0.271 OA
ATOM      8  N   LYS     2      62.317  42.861  52.029  1.00  0.00    -0.338 N 
ATOM      9  H   LYS     2      62.362  43.631  52.663  1.00 99.99     0.164 HD
BRANCH   8  10
ATOM     10  CA  LYS     2      62.225  41.540  52.711  1.00  0.00     0.159 C 
BRANCH  10  11
ATOM     11  C   LYS     2      60.900  40.759  52.557  1.00  0.00     0.251 C 
ATOM     12  N   LEU     3      59.809  41.445  52.194  1.00  0.00    -0.338 N 
ATOM     13  H   LEU     3      59.816  42.442  52.149  1.00 99.99     0.164 HD
ATOM     14  O   LYS     2      60.913  39.540  52.710  1.00  0.00    -0.271 OA
BRANCH  12  15
ATOM     15  CA  LEU     3      58.488  40.842  51.894  1.00  0.00     0.159 C 
BRANCH  15  16
ATOM     16  C   LEU     3      58.048  41.013  50.423  1.00  0.00     0.251 C 
ATOM     17  N   LYS     4      57.190  42.010  50.178  1.00  0.00    -0.338 N 
ATOM     18  H   LYS     4      56.927  42.636  50.913  1.00 99.99     0.164 HD
ATOM     19  O   LEU     3      58.729  40.482  49.551  1.00  0.00    -0.271 OA
BRANCH  17  20
ATOM     20  CA  LYS     4      56.622  42.385  48.859  1.00  0.00     0.159 C 
BRANCH  20  21
ATOM     21  C   LYS     4      57.440  43.358  47.972  1.00  0.00     0.251 C 
ATOM     22  N   ALA     5      58.560  42.875  47.440  1.00  0.00    -0.338 N 
ATOM     23  H   ALA     5      58.922  41.987  47.734  1.00 99.99     0.164 HD
ATOM     24  O   LYS     4      57.134  44.546  47.891  1.00  0.00    -0.271 OA
BRANCH  22  25
ATOM     25  CA  ALA     5      59.415  43.578  46.458  1.00  0.00     0.159 C 
ATOM     26  CB  ALA     5      60.835  43.022  46.607  1.00  0.00     0.034 C 
BRANCH  25  27
ATOM     27  C   ALA     5      58.919  43.435  44.998  1.00  0.00     0.251 C 
ATOM     28  N   PHE     6      58.777  42.183  44.567  1.00  0.00    -0.337 N 
ATOM     29  H   PHE     6      59.106  41.425  45.130  1.00 99.99     0.164 HD
ATOM     30  O   ALA     5      58.750  44.416  44.278  1.00  0.00    -0.271 OA
BRANCH  28  31
ATOM     31  CA  PHE     6      58.298  41.763  43.234  1.00  0.00     0.164 C 
BRANCH  31  32
ATOM     32  C   PHE     6      57.517  40.431  43.295  1.00  0.00     0.251 C 
ATOM     33  O   PHE     6      57.660  39.574  42.426  1.00  0.00    -0.271 OA
ATOM     34  N   ALA     7      56.735  40.274  44.366  1.00  0.00    -0.336 N 
ATOM     35  H   ALA     7      56.733  40.972  45.086  1.00 99.99     0.164 HD
BRANCH  34  36
ATOM     36  CA  ALA     7      55.864  39.116  44.675  1.00  0.00     0.168 C 
ATOM     37  CB  ALA     7      56.682  38.008  45.350  1.00  0.00     0.036 C 
BRANCH  36  38
ATOM     38  C   ALA     7      54.739  39.540  45.640  1.00  0.00     0.206 C 
ATOM     39  O   ALA     7      54.144  38.641  46.273  1.00 99.99    -0.646 OA
ATOM     40  OXT ALA     7      54.397  40.744  45.596  1.00 99.99    -0.646 OA
ENDBRANCH  36  38
ENDBRANCH  34  36
ENDBRANCH  31  32
BRANCH  31  41
ATOM     41  CB  PHE     6      59.542  41.659  42.337  1.00  0.00     0.056 C 
BRANCH  41  42
ATOM     42  CG  PHE     6      59.402  42.374  40.994  1.00  0.00    -0.044 A 
ATOM     43  CD2 PHE     6      59.779  43.707  40.888  1.00  0.00     0.008 A 
ATOM     44  CE2 PHE     6      59.667  44.367  39.672  1.00  0.00     0.001 A 
ATOM     45  CZ  PHE     6      59.174  43.695  38.560  1.00  0.00     0.000 A 
ATOM     46  CE1 PHE     6      58.798  42.360  38.665  1.00  0.00     0.001 A 
ATOM     47  CD1 PHE     6      58.900  41.703  39.884  1.00  0.00     0.008 A 
ENDBRANCH  41  42
ENDBRANCH  31  41
ENDBRANCH  28  31
ENDBRANCH  25  27
ENDBRANCH  22  25
ENDBRANCH  20  21
BRANCH  20  48
ATOM     48  CB  LYS     4      55.232  43.001  49.074  1.00  0.00     0.032 C 
BRANCH  48  49
ATOM     49  CG  LYS     4      54.271  42.159  49.915  1.00  0.00     0.004 C 
BRANCH  49  50
ATOM     50  CD  LYS     4      53.939  40.883  49.138  1.00  0.00     0.032 C 
BRANCH  50  51
ATOM     51  CE  LYS     4      52.822  40.077  49.802  1.00  0.00     0.206 C 
BRANCH  51  52
ATOM     52  NZ  LYS     4      51.667  40.936  50.108  1.00  0.00    -0.064 N 
ATOM     53  HZ1 LYS     4      51.985  41.781  50.541  1.00 99.99     0.275 HD
ATOM     54  HZ2 LYS     4      51.172  41.157  49.269  1.00 99.99     0.275 HD
ATOM     55  HZ3 LYS     4      51.054  40.456  50.737  1.00 99.99     0.275 HD
ENDBRANCH  51  52
ENDBRANCH  50  51
ENDBRANCH  49  50
ENDBRANCH  48  49
ENDBRANCH  20  48
ENDBRANCH  17  20
ENDBRANCH  15  16
BRANCH  15  56
ATOM     56  CB  LEU     3      57.450  41.418  52.873  1.00  0.00     0.032 C 
BRANCH  56  57
ATOM     57  CG  LEU     3      56.883  40.400  53.876  1.00  0.00     0.002 C 
ATOM     58  CD2 LEU     3      56.999  38.987  53.301  1.00  0.00     0.000 C 
ATOM     59  CD1 LEU     3      55.425  40.705  54.233  1.00  0.00     0.000 C 
ENDBRANCH  56  57
ENDBRANCH  15  56
ENDBRANCH  12  15
ENDBRANCH  10  11
BRANCH  10  60
ATOM     60  CB  LYS     2      62.680  41.627  54.179  1.00  0.00     0.032 C 
BRANCH  60  61
ATOM     61  CG  LYS     2      63.713  40.536  54.499  1.00  0.00     0.004 C 
BRANCH  61  62
ATOM     62  CD  LYS     2      64.384  39.935  53.261  1.00  0.00     0.032 C 
BRANCH  62  63
ATOM     63  CE  LYS     2      65.792  39.446  53.614  1.00  0.00     0.206 C 
BRANCH  63  64
ATOM     64  NZ  LYS     2      66.587  40.477  54.301  1.00  0.00    -0.064 N 
ATOM     65  HZ3 LYS     2      65.988  41.215  54.613  1.00 99.99     0.275 HD
ATOM     66  HZ1 LYS     2      67.044  40.070  55.092  1.00 99.99     0.275 HD
ATOM     67  HZ2 LYS     2      67.276  40.844  53.677  1.00 99.99     0.275 HD
ENDBRANCH  63  64
ENDBRANCH  62  63
ENDBRANCH  61  62
ENDBRANCH  60  61
ENDBRANCH  10  60
ENDBRANCH   8  10
ENDBRANCH   5   6
BRANCH   5  68
ATOM     68  CB  LYS     1      63.485  44.681  48.962  1.00  0.00     0.040 C 
BRANCH  68  69
ATOM     69  CG  LYS     1      64.893  44.122  49.240  1.00  0.00     0.004 C 
BRANCH  69  70
ATOM     70  CD  LYS     1      66.034  45.121  48.979  1.00  0.00     0.032 C 
BRANCH  70  71
ATOM     71  CE  LYS     1      65.764  46.469  49.664  1.00  0.00     0.206 C 
BRANCH  71  72
ATOM     72  NZ  LYS     1      66.454  47.606  49.026  1.00  0.00    -0.064 N 
ATOM     73  HZ1 LYS     1      67.209  47.266  48.462  1.00 99.99     0.275 HD
ATOM     74  HZ2 LYS     1      65.817  48.108  48.440  1.00 99.99     0.275 HD
ATOM     75  HZ3 LYS     1      66.823  48.223  49.721  1.00 99.99     0.275 HD
ENDBRANCH  71  72
ENDBRANCH  70  71
ENDBRANCH  69  70
ENDBRANCH  68  69
ENDBRANCH   5  68
ENDBRANCH   1   5
TORSDOF 33
ENDMDL
MODEL 4
REMARK VINA RESULT:      -4.0      2.727      7.360
REMARK WARNING: 32 MAX_TORS EXCEEDED!!!
REMARK  33 active torsions:
REMARK  status: ('A' for Active; 'I' for Inactive)
REMARK    1  A    between atoms: N_1  and  CA_2 
REMARK    2  A    between atoms: CA_2  and  C_3 
REMARK    3  A    between atoms: CA_2  and  CB_5 
REMARK       I    between atoms: C_3  and  N_16 
REMARK    4  A    between atoms: CB_5  and  CG_6 
REMARK    5  A    between atoms: CG_6  and  CD_7 
REMARK    6  A    between atoms: CD_7  and  CE_8 
REMARK    7  A    between atoms: CE_8  and  NZ_9 
REMARK    8  A    between atoms: N_16  and  CA_17 
REMARK    9  A    between atoms: CA_17  and  C_18 
REMARK   10  A    between atoms: CA_17  and  CB_20 
REMARK       I    between atoms: C_18  and  N_29 
REMARK   11  A    between atoms: CB_20  and  CG_21 
REMARK   12  A    between atoms: CG_21  and  CD_22 
REMARK   13  A    between atoms: CD_22  and  CE_23 
REMARK   14  A    between atoms: CE_23  and  NZ_24 
REMARK   15  A    between atoms: N_29  and  CA_30 
REMARK   16  A    between atoms: CA_30  and  C_31 
REMARK   17  A    between atoms: CA_30  and  CB_33 
REMARK       I    between atoms: C_31  and  N_38 
REMARK   18  A    between atoms: CB_33  and  CG_34 
REMARK   19  A    between atoms: N_38  and  CA_39 
REMARK   20  A    between atoms: CA_39  and  C_40 
REMARK   21  A    between atoms: CA_39  and  CB_42 
REMARK       I    between atoms: C_40  and  N_51 
REMARK   22  A    between atoms: CB_42  and  CG_43 
REMARK   23  A    between atoms: CG_43  and  CD_44 
REMARK   24  A    between atoms: CD_44  and  CE_45 
REMARK   25  A    between atoms: CE_45  and  NZ_46 
REMARK   26  A    between atoms: N_51  and  CA_52 
REMARK   27  A    between atoms: CA_52  and  C_53 
REMARK       I    between atoms: C_53  and  N_57 
REMARK   28  A    between atoms: N_57  and  CA_58 
REMARK   29  A    between atoms: CA_58  and  C_59 
REMARK   30  A    between atoms: CA_58  and  CB_61 
REMARK       I    between atoms: C_59  and  N_69 
REMARK   31  A    between atoms: CB_61  and  CG_62 
REMARK   32  A    between atoms: N_69  and  CA_70 
REMARK   33  A    between atoms: CA_70  and  C_71 
ROOT
ATOM      1  N   LYS     1      55.126  39.707  44.429  1.00  0.00    -0.058 N 
ATOM      2  H1  LYS     1      55.526  38.802  44.291  1.00 99.99     0.276 HD
ATOM      3  H2  LYS     1      54.270  39.762  43.954  1.00 99.99     0.276 HD
ATOM      4  H3  LYS     1      55.717  40.373  43.988  1.00 99.99     0.276 HD
ENDROOT
BRANCH   1   5
ATOM      5  CA  LYS     1      55.006  39.958  45.884  1.00  0.00     0.255 C 
BRANCH   5   6
ATOM      6  C   LYS     1      56.289  40.693  46.340  1.00  0.00     0.259 C 
ATOM      7  O   LYS     1      57.344  40.205  45.943  1.00  0.00    -0.271 OA
ATOM      8  N   LYS     2      56.228  41.495  47.418  1.00  0.00    -0.338 N 
ATOM      9  H   LYS     2      55.369  41.616  47.913  1.00 99.99     0.164 HD
BRANCH   8  10
ATOM     10  CA  LYS     2      57.343  42.316  47.966  1.00  0.00     0.159 C 
BRANCH  10  11
ATOM     11  C   LYS     2      57.415  42.471  49.502  1.00  0.00     0.251 C 
ATOM     12  N   LEU     3      58.430  41.877  50.143  1.00  0.00    -0.338 N 
ATOM     13  H   LEU     3      59.044  41.251  49.669  1.00 99.99     0.164 HD
ATOM     14  O   LYS     2      56.582  43.180  50.063  1.00  0.00    -0.271 OA
BRANCH  12  15
ATOM     15  CA  LEU     3      58.714  42.013  51.592  1.00  0.00     0.159 C 
BRANCH  15  16
ATOM     16  C   LEU     3      60.155  42.476  51.901  1.00  0.00     0.251 C 
ATOM     17  N   LYS     4      61.043  42.336  50.909  1.00  0.00    -0.338 N 
ATOM     18  H   LYS     4      60.742  42.016  50.010  1.00 99.99     0.164 HD
ATOM     19  O   LEU     3      60.329  43.225  52.858  1.00  0.00    -0.271 OA
BRANCH  17  20
ATOM     20  CA  LYS     4      62.479  42.706  50.948  1.00  0.00     0.159 C 
BRANCH  20  21
ATOM     21  C   LYS     4      62.891  44.064  50.324  1.00  0.00     0.251 C 
ATOM     22  N   ALA     5      64.119  44.135  49.815  1.00  0.00    -0.338 N 
ATOM     23  H   ALA     5      64.780  43.399  49.977  1.00 99.99     0.164 HD
ATOM     24  O   LYS     4      62.167  45.052  50.429  1.00  0.00    -0.271 OA
BRANCH  22  25
ATOM     25  CA  ALA     5      64.666  45.278  49.053  1.00  0.00     0.159 C 
ATOM     26  CB  ALA     5      65.487  46.127  50.029  1.00  0.00     0.034 C 
BRANCH  25  27
ATOM     27  C   ALA     5      65.525  44.853  47.837  1.00  0.00     0.251 C 
ATOM     28  N   PHE     6      65.100  43.769  47.193  1.00  0.00    -0.337 N 
ATOM     29  H   PHE     6      64.357  43.222  47.580  1.00 99.99     0.164 HD
ATOM     30  O   ALA     5      66.565  45.441  47.549  1.00  0.00    -0.271 OA
BRANCH  28  31
ATOM     31  CA  PHE     6      65.713  43.164  45.992  1.00  0.00     0.164 C 
BRANCH  31  32
ATOM     32  C   PHE     6      64.647  42.628  45.009  1.00  0.00     0.251 C 
ATOM     33  O   PHE     6      63.624  43.268  44.777  1.00  0.00    -0.271 OA
ATOM     34  N   ALA     7      64.947  41.471  44.414  1.00  0.00    -0.336 N 
ATOM     35  H   ALA     7      65.840  41.045  44.578  1.00 99.99     0.164 HD
BRANCH  34  36
ATOM     36  CA  ALA     7      64.111  40.719  43.450  1.00  0.00     0.168 C 
ATOM     37  CB  ALA     7      62.783  40.320  44.106  1.00  0.00     0.036 C 
BRANCH  36  38
ATOM     38  C   ALA     7      63.796  41.596  42.221  1.00  0.00     0.206 C 
ATOM     39  O   ALA     7      64.758  42.039  41.559  1.00 99.99    -0.646 OA
ATOM     40  OXT ALA     7      62.597  41.931  42.074  1.00 99.99    -0.646 OA
ENDBRANCH  36  38
ENDBRANCH  34  36
ENDBRANCH  31  32
BRANCH  31  41
ATOM     41  CB  PHE     6      66.644  42.050  46.493  1.00  0.00     0.056 C 
BRANCH  41  42
ATOM     42  CG  PHE     6      68.119  42.274  46.159  1.00  0.00    -0.044 A 
ATOM     43  CD2 PHE     6      68.554  42.105  44.850  1.00  0.00     0.008 A 
ATOM     44  CE2 PHE     6      69.888  42.316  44.529  1.00  0.00     0.001 A 
ATOM     45  CZ  PHE     6      70.790  42.691  45.517  1.00  0.00     0.000 A 
ATOM     46  CE1 PHE     6      70.354  42.862  46.827  1.00  0.00     0.001 A 
ATOM     47  CD1 PHE     6      69.021  42.641  47.151  1.00  0.00     0.008 A 
ENDBRANCH  41  42
ENDBRANCH  31  41
ENDBRANCH  28  31
ENDBRANCH  25  27
ENDBRANCH  22  25
ENDBRANCH  20  21
BRANCH  20  48
ATOM     48  CB  LYS     4      63.295  41.605  50.258  1.00  0.00     0.032 C 
BRANCH  48  49
ATOM     49  CG  LYS     4      62.482  40.636  49.398  1.00  0.00     0.004 C 
BRANCH  49  50
ATOM     50  CD  LYS     4      62.758  40.948  47.925  1.00  0.00     0.032 C 
BRANCH  50  51
ATOM     51  CE  LYS     4      61.594  41.688  47.263  1.00  0.00     0.206 C 
BRANCH  51  52
ATOM     52  NZ  LYS     4      61.871  43.131  47.184  1.00  0.00    -0.064 N 
ATOM     53  HZ1 LYS     4      62.848  43.276  47.025  1.00 99.99     0.275 HD
ATOM     54  HZ2 LYS     4      61.347  43.540  46.438  1.00 99.99     0.275 HD
ATOM     55  HZ3 LYS     4      61.612  43.566  48.048  1.00 99.99     0.275 HD
ENDBRANCH  51  52
ENDBRANCH  50  51
ENDBRANCH  49  50
ENDBRANCH  48  49
ENDBRANCH  20  48
ENDBRANCH  17  20
ENDBRANCH  15  16
BRANCH  15  56
ATOM     56  CB  LEU     3      58.379  40.682  52.287  1.00  0.00     0.032 C 
BRANCH  56  57
ATOM     57  CG  LEU     3      56.888  40.484  52.604  1.00  0.00     0.002 C 
ATOM     58  CD2 LEU     3      56.676  40.487  54.119  1.00  0.00     0.000 C 
ATOM     59  CD1 LEU     3      56.347  39.184  52.001  1.00  0.00     0.000 C 
ENDBRANCH  56  57
ENDBRANCH  15  56
ENDBRANCH  12  15
ENDBRANCH  10  11
BRANCH  10  60
ATOM     60  CB  LYS     2      57.463  43.668  47.240  1.00  0.00     0.032 C 
BRANCH  60  61
ATOM     61  CG  LYS     2      58.727  43.714  46.369  1.00  0.00     0.004 C 
BRANCH  61  62
ATOM     62  CD  LYS     2      58.445  43.700  44.864  1.00  0.00     0.032 C 
BRANCH  62  63
ATOM     63  CE  LYS     2      59.490  42.842  44.144  1.00  0.00     0.206 C 
BRANCH  63  64
ATOM     64  NZ  LYS     2      60.756  43.562  43.932  1.00  0.00    -0.064 N 
ATOM     65  HZ3 LYS     2      60.610  44.545  44.041  1.00 99.99     0.275 HD
ATOM     66  HZ1 LYS     2      61.429  43.254  44.605  1.00 99.99     0.275 HD
ATOM     67  HZ2 LYS     2      61.102  43.373  43.013  1.00 99.99     0.275 HD
ENDBRANCH  63  64
ENDBRANCH  62  63
ENDBRANCH  61  62
ENDBRANCH  60  61
ENDBRANCH  10  60
ENDBRANCH   8  10
ENDBRANCH   5   6
BRANCH   5  68
ATOM     68  CB  LYS     1      54.643  38.694  46.698  1.00  0.00     0.040 C 
BRANCH  68  69
ATOM     69  CG  LYS     1      53.501  38.954  47.698  1.00  0.00     0.004 C 
BRANCH  69  70
ATOM     70  CD  LYS     1      53.967  39.467  49.072  1.00  0.00     0.032 C 
BRANCH  70  71
ATOM     71  CE  LYS     1      53.363  40.844  49.389  1.00  0.00     0.206 C 
BRANCH  71  72
ATOM     72  NZ  LYS     1      54.053  41.556  50.480  1.00  0.00    -0.064 N 
ATOM     73  HZ1 LYS     1      53.737  41.203  51.363  1.00 99.99     0.275 HD
ATOM     74  HZ2 LYS     1      55.041  41.412  50.413  1.00 99.99     0.275 HD
ATOM     75  HZ3 LYS     1      53.856  42.535  50.435  1.00 99.99     0.275 HD
ENDBRANCH  71  72
ENDBRANCH  70  71
ENDBRANCH  69  70
ENDBRANCH  68  69
ENDBRANCH   5  68
ENDBRANCH   1   5
TORSDOF 33
ENDMDL
MODEL 5
REMARK VINA RESULT:      -4.0      2.953      7.803
REMARK WARNING: 32 MAX_TORS EXCEEDED!!!
REMARK  33 active torsions:
REMARK  status: ('A' for Active; 'I' for Inactive)
REMARK    1  A    between atoms: N_1  and  CA_2 
REMARK    2  A    between atoms: CA_2  and  C_3 
REMARK    3  A    between atoms: CA_2  and  CB_5 
REMARK       I    between atoms: C_3  and  N_16 
REMARK    4  A    between atoms: CB_5  and  CG_6 
REMARK    5  A    between atoms: CG_6  and  CD_7 
REMARK    6  A    between atoms: CD_7  and  CE_8 
REMARK    7  A    between atoms: CE_8  and  NZ_9 
REMARK    8  A    between atoms: N_16  and  CA_17 
REMARK    9  A    between atoms: CA_17  and  C_18 
REMARK   10  A    between atoms: CA_17  and  CB_20 
REMARK       I    between atoms: C_18  and  N_29 
REMARK   11  A    between atoms: CB_20  and  CG_21 
REMARK   12  A    between atoms: CG_21  and  CD_22 
REMARK   13  A    between atoms: CD_22  and  CE_23 
REMARK   14  A    between atoms: CE_23  and  NZ_24 
REMARK   15  A    between atoms: N_29  and  CA_30 
REMARK   16  A    between atoms: CA_30  and  C_31 
REMARK   17  A    between atoms: CA_30  and  CB_33 
REMARK       I    between atoms: C_31  and  N_38 
REMARK   18  A    between atoms: CB_33  and  CG_34 
REMARK   19  A    between atoms: N_38  and  CA_39 
REMARK   20  A    between atoms: CA_39  and  C_40 
REMARK   21  A    between atoms: CA_39  and  CB_42 
REMARK       I    between atoms: C_40  and  N_51 
REMARK   22  A    between atoms: CB_42  and  CG_43 
REMARK   23  A    between atoms: CG_43  and  CD_44 
REMARK   24  A    between atoms: CD_44  and  CE_45 
REMARK   25  A    between atoms: CE_45  and  NZ_46 
REMARK   26  A    between atoms: N_51  and  CA_52 
REMARK   27  A    between atoms: CA_52  and  C_53 
REMARK       I    between atoms: C_53  and  N_57 
REMARK   28  A    between atoms: N_57  and  CA_58 
REMARK   29  A    between atoms: CA_58  and  C_59 
REMARK   30  A    between atoms: CA_58  and  CB_61 
REMARK       I    between atoms: C_59  and  N_69 
REMARK   31  A    between atoms: CB_61  and  CG_62 
REMARK   32  A    between atoms: N_69  and  CA_70 
REMARK   33  A    between atoms: CA_70  and  C_71 
ROOT
ATOM      1  N   LYS     1      56.064  41.985  48.774  1.00  0.00    -0.058 N 
ATOM      2  H1  LYS     1      55.616  41.365  48.132  1.00 99.99     0.276 HD
ATOM      3  H2  LYS     1      56.525  42.694  48.277  1.00 99.99     0.276 HD
ATOM      4  H3  LYS     1      56.782  41.479  49.238  1.00 99.99     0.276 HD
ENDROOT
BRANCH   1   5
ATOM      5  CA  LYS     1      55.052  42.499  49.725  1.00  0.00     0.255 C 
BRANCH   5   6
ATOM      6  C   LYS     1      55.737  42.647  51.105  1.00  0.00     0.259 C 
ATOM      7  O   LYS     1      55.755  43.786  51.563  1.00  0.00    -0.271 OA
ATOM      8  N   LYS     2      56.600  41.697  51.505  1.00  0.00    -0.338 N 
ATOM      9  H   LYS     2      56.792  40.908  50.923  1.00 99.99     0.164 HD
BRANCH   8  10
ATOM     10  CA  LYS     2      57.306  41.648  52.815  1.00  0.00     0.159 C 
BRANCH  10  11
ATOM     11  C   LYS     2      58.740  42.224  52.864  1.00  0.00     0.251 C 
ATOM     12  N   LEU     3      59.720  41.508  52.299  1.00  0.00    -0.338 N 
ATOM     13  H   LEU     3      59.559  40.579  51.972  1.00 99.99     0.164 HD
ATOM     14  O   LYS     2      58.913  43.335  53.359  1.00  0.00    -0.271 OA
BRANCH  12  15
ATOM     15  CA  LEU     3      61.126  41.957  52.157  1.00  0.00     0.159 C 
BRANCH  15  16
ATOM     16  C   LEU     3      61.345  42.952  50.996  1.00  0.00     0.251 C 
ATOM     17  N   LYS     4      60.689  42.685  49.861  1.00  0.00    -0.338 N 
ATOM     18  H   LYS     4      60.046  41.920  49.823  1.00 99.99     0.164 HD
ATOM     19  O   LEU     3      61.804  44.059  51.263  1.00  0.00    -0.271 OA
BRANCH  17  20
ATOM     20  CA  LYS     4      60.725  43.481  48.609  1.00  0.00     0.159 C 
BRANCH  20  21
ATOM     21  C   LYS     4      59.438  43.526  47.746  1.00  0.00     0.251 C 
ATOM     22  N   ALA     5      59.588  43.292  46.445  1.00  0.00    -0.338 N 
ATOM     23  H   ALA     5      60.503  43.251  46.037  1.00 99.99     0.164 HD
ATOM     24  O   LYS     4      58.370  43.899  48.227  1.00  0.00    -0.271 OA
BRANCH  22  25
ATOM     25  CA  ALA     5      58.487  43.149  45.467  1.00  0.00     0.159 C 
ATOM     26  CB  ALA     5      58.775  44.110  44.310  1.00  0.00     0.034 C 
BRANCH  25  27
ATOM     27  C   ALA     5      58.309  41.701  44.948  1.00  0.00     0.251 C 
ATOM     28  N   PHE     6      59.313  40.872  45.225  1.00  0.00    -0.337 N 
ATOM     29  H   PHE     6      60.158  41.232  45.621  1.00 99.99     0.164 HD
ATOM     30  O   ALA     5      57.340  41.378  44.264  1.00  0.00    -0.271 OA
BRANCH  28  31
ATOM     31  CA  PHE     6      59.390  39.439  44.873  1.00  0.00     0.164 C 
BRANCH  31  32
ATOM     32  C   PHE     6      59.650  38.554  46.114  1.00  0.00     0.251 C 
ATOM     33  O   PHE     6      59.806  37.340  46.003  1.00  0.00    -0.271 OA
ATOM     34  N   ALA     7      59.737  39.207  47.275  1.00  0.00    -0.336 N 
ATOM     35  H   ALA     7      59.692  40.209  47.287  1.00 99.99     0.164 HD
BRANCH  34  36
ATOM     36  CA  ALA     7      59.958  38.619  48.617  1.00  0.00     0.168 C 
ATOM     37  CB  ALA     7      61.452  38.645  48.962  1.00  0.00     0.036 C 
BRANCH  36  38
ATOM     38  C   ALA     7      59.203  39.434  49.686  1.00  0.00     0.206 C 
ATOM     39  O   ALA     7      59.041  38.913  50.810  1.00 99.99    -0.646 OA
ATOM     40  OXT ALA     7      58.668  40.497  49.295  1.00 99.99    -0.646 OA
ENDBRANCH  36  38
ENDBRANCH  34  36
ENDBRANCH  31  32
BRANCH  31  41
ATOM     41  CB  PHE     6      60.509  39.307  43.829  1.00  0.00     0.056 C 
BRANCH  41  42
ATOM     42  CG  PHE     6      61.526  40.447  43.860  1.00  0.00    -0.044 A 
ATOM     43  CD2 PHE     6      61.380  41.516  42.984  1.00  0.00     0.008 A 
ATOM     44  CE2 PHE     6      62.289  42.564  43.008  1.00  0.00     0.001 A 
ATOM     45  CZ  PHE     6      63.350  42.543  43.905  1.00  0.00     0.000 A 
ATOM     46  CE1 PHE     6      63.496  41.474  44.784  1.00  0.00     0.001 A 
ATOM     47  CD1 PHE     6      62.592  40.420  44.753  1.00  0.00     0.008 A 
ENDBRANCH  41  42
ENDBRANCH  31  41
ENDBRANCH  28  31
ENDBRANCH  25  27
ENDBRANCH  22  25
ENDBRANCH  20  21
BRANCH  20  48
ATOM     48  CB  LYS     4      61.867  42.963  47.723  1.00  0.00     0.032 C 
BRANCH  48  49
ATOM     49  CG  LYS     4      62.762  41.904  48.369  1.00  0.00     0.004 C 
BRANCH  49  50
ATOM     50  CD  LYS     4      64.205  42.412  48.348  1.00  0.00     0.032 C 
BRANCH  50  51
ATOM     51  CE  LYS     4      64.283  43.937  48.440  1.00  0.00     0.206 C 
BRANCH  51  52
ATOM     52  NZ  LYS     4      64.496  44.366  49.831  1.00  0.00    -0.064 N 
ATOM     53  HZ1 LYS     4      63.993  43.760  50.448  1.00 99.99     0.275 HD
ATOM     54  HZ2 LYS     4      65.470  44.336  50.054  1.00 99.99     0.275 HD
ATOM     55  HZ3 LYS     4      64.160  45.302  49.945  1.00 99.99     0.275 HD
ENDBRANCH  51  52
ENDBRANCH  50  51
ENDBRANCH  49  50
ENDBRANCH  48  49
ENDBRANCH  20  48
ENDBRANCH  17  20
ENDBRANCH  15  16
BRANCH  15  56
ATOM     56  CB  LEU     3      62.029  40.718  52.028  1.00  0.00     0.032 C 
BRANCH  56  57
ATOM     57  CG  LEU     3      62.935  40.457  53.241  1.00  0.00     0.002 C 
ATOM     58  CD2 LEU     3      62.644  39.070  53.816  1.00  0.00     0.000 C 
ATOM     59  CD1 LEU     3      62.754  41.524  54.325  1.00  0.00     0.000 C 
ENDBRANCH  56  57
ENDBRANCH  15  56
ENDBRANCH  12  15
ENDBRANCH  10  11
BRANCH  10  60
ATOM     60  CB  LYS     2      57.221  40.250  53.454  1.00  0.00     0.032 C 
BRANCH  60  61
ATOM     61  CG  LYS     2      56.326  40.271  54.703  1.00  0.00     0.004 C 
BRANCH  61  62
ATOM     62  CD  LYS     2      55.252  39.180  54.715  1.00  0.00     0.032 C 
BRANCH  62  63
ATOM     63  CE  LYS     2      54.777  38.899  53.286  1.00  0.00     0.206 C 
BRANCH  63  64
ATOM     64  NZ  LYS     2      53.685  39.795  52.872  1.00  0.00    -0.064 N 
ATOM     65  HZ3 LYS     2      53.051  39.304  52.274  1.00 99.99     0.275 HD
ATOM     66  HZ1 LYS     2      53.192  40.114  53.682  1.00 99.99     0.275 HD
ATOM     67  HZ2 LYS     2      54.062  40.584  52.386  1.00 99.99     0.275 HD
ENDBRANCH  63  64
ENDBRANCH  62  63
ENDBRANCH  61  62
ENDBRANCH  60  61
ENDBRANCH  10  60
ENDBRANCH   8  10
ENDBRANCH   5   6
BRANCH   5  68
ATOM     68  CB  LYS     1      53.737  41.684  49.722  1.00  0.00     0.040 C 
BRANCH  68  69
ATOM     69  CG  LYS     1      53.758  40.551  48.679  1.00  0.00     0.004 C 
BRANCH  69  70
ATOM     70  CD  LYS     1      53.595  39.140  49.271  1.00  0.00     0.032 C 
BRANCH  70  71
ATOM     71  CE  LYS     1      54.851  38.287  49.039  1.00  0.00     0.206 C 
BRANCH  71  72
ATOM     72  NZ  LYS     1      55.992  38.669  49.892  1.00  0.00    -0.064 N 
ATOM     73  HZ1 LYS     1      56.722  39.052  49.323  1.00 99.99     0.275 HD
ATOM     74  HZ2 LYS     1      55.707  39.361  50.556  1.00 99.99     0.275 HD
ATOM     75  HZ3 LYS     1      56.346  37.869  50.375  1.00 99.99     0.275 HD
ENDBRANCH  71  72
ENDBRANCH  70  71
ENDBRANCH  69  70
ENDBRANCH  68  69
ENDBRANCH   5  68
ENDBRANCH   1   5
TORSDOF 33
ENDMDL
MODEL 6
REMARK VINA RESULT:      -3.9      2.672      5.615
REMARK WARNING: 32 MAX_TORS EXCEEDED!!!
REMARK  33 active torsions:
REMARK  status: ('A' for Active; 'I' for Inactive)
REMARK    1  A    between atoms: N_1  and  CA_2 
REMARK    2  A    between atoms: CA_2  and  C_3 
REMARK    3  A    between atoms: CA_2  and  CB_5 
REMARK       I    between atoms: C_3  and  N_16 
REMARK    4  A    between atoms: CB_5  and  CG_6 
REMARK    5  A    between atoms: CG_6  and  CD_7 
REMARK    6  A    between atoms: CD_7  and  CE_8 
REMARK    7  A    between atoms: CE_8  and  NZ_9 
REMARK    8  A    between atoms: N_16  and  CA_17 
REMARK    9  A    between atoms: CA_17  and  C_18 
REMARK   10  A    between atoms: CA_17  and  CB_20 
REMARK       I    between atoms: C_18  and  N_29 
REMARK   11  A    between atoms: CB_20  and  CG_21 
REMARK   12  A    between atoms: CG_21  and  CD_22 
REMARK   13  A    between atoms: CD_22  and  CE_23 
REMARK   14  A    between atoms: CE_23  and  NZ_24 
REMARK   15  A    between atoms: N_29  and  CA_30 
REMARK   16  A    between atoms: CA_30  and  C_31 
REMARK   17  A    between atoms: CA_30  and  CB_33 
REMARK       I    between atoms: C_31  and  N_38 
REMARK   18  A    between atoms: CB_33  and  CG_34 
REMARK   19  A    between atoms: N_38  and  CA_39 
REMARK   20  A    between atoms: CA_39  and  C_40 
REMARK   21  A    between atoms: CA_39  and  CB_42 
REMARK       I    between atoms: C_40  and  N_51 
REMARK   22  A    between atoms: CB_42  and  CG_43 
REMARK   23  A    between atoms: CG_43  and  CD_44 
REMARK   24  A    between atoms: CD_44  and  CE_45 
REMARK   25  A    between atoms: CE_45  and  NZ_46 
REMARK   26  A    between atoms: N_51  and  CA_52 
REMARK   27  A    between atoms: CA_52  and  C_53 
REMARK       I    between atoms: C_53  and  N_57 
REMARK   28  A    between atoms: N_57  and  CA_58 
REMARK   29  A    between atoms: CA_58  and  C_59 
REMARK   30  A    between atoms: CA_58  and  CB_61 
REMARK       I    between atoms: C_59  and  N_69 
REMARK   31  A    between atoms: CB_61  and  CG_62 
REMARK   32  A    between atoms: N_69  and  CA_70 
REMARK   33  A    between atoms: CA_70  and  C_71 
ROOT
ATOM      1  N   LYS     1      61.857  43.805  50.519  1.00  0.00    -0.058 N 
ATOM      2  H1  LYS     1      61.228  44.384  51.036  1.00 99.99     0.276 HD
ATOM      3  H2  LYS     1      61.736  42.870  50.787  1.00 99.99     0.276 HD
ATOM      4  H3  LYS     1      62.783  44.040  50.791  1.00 99.99     0.276 HD
ENDROOT
BRANCH   1   5
ATOM      5  CA  LYS     1      61.636  44.033  49.073  1.00  0.00     0.255 C 
BRANCH   5   6
ATOM      6  C   LYS     1      60.226  43.498  48.723  1.00  0.00     0.259 C 
ATOM      7  O   LYS     1      59.858  42.524  49.374  1.00  0.00    -0.271 OA
ATOM      8  N   LYS     2      59.693  43.809  47.529  1.00  0.00    -0.338 N 
ATOM      9  H   LYS     2      60.197  44.377  46.880  1.00 99.99     0.164 HD
BRANCH   8  10
ATOM     10  CA  LYS     2      58.337  43.427  47.047  1.00  0.00     0.159 C 
BRANCH  10  11
ATOM     11  C   LYS     2      57.139  43.789  47.954  1.00  0.00     0.251 C 
ATOM     12  N   LEU     3      56.726  42.871  48.839  1.00  0.00    -0.338 N 
ATOM     13  H   LEU     3      57.091  41.943  48.828  1.00 99.99     0.164 HD
ATOM     14  O   LYS     2      56.657  44.916  47.875  1.00  0.00    -0.271 OA
BRANCH  12  15
ATOM     15  CA  LEU     3      55.671  43.088  49.857  1.00  0.00     0.159 C 
BRANCH  15  16
ATOM     16  C   LEU     3      56.157  42.882  51.308  1.00  0.00     0.251 C 
ATOM     17  N   LYS     4      57.353  42.298  51.451  1.00  0.00    -0.338 N 
ATOM     18  H   LYS     4      57.906  42.087  50.644  1.00 99.99     0.164 HD
ATOM     19  O   LEU     3      55.618  43.536  52.197  1.00  0.00    -0.271 OA
BRANCH  17  20
ATOM     20  CA  LYS     4      58.042  41.992  52.729  1.00  0.00     0.159 C 
BRANCH  20  21
ATOM     21  C   LYS     4      59.590  42.079  52.751  1.00  0.00     0.251 C 
ATOM     22  N   ALA     5      60.246  40.931  52.901  1.00  0.00    -0.338 N 
ATOM     23  H   ALA     5      59.755  40.092  53.145  1.00 99.99     0.164 HD
ATOM     24  O   LYS     4      60.160  43.168  52.772  1.00  0.00    -0.271 OA
BRANCH  22  25
ATOM     25  CA  ALA     5      61.713  40.765  52.811  1.00  0.00     0.159 C 
ATOM     26  CB  ALA     5      62.115  39.689  53.826  1.00  0.00     0.034 C 
BRANCH  25  27
ATOM     27  C   ALA     5      62.204  40.391  51.391  1.00  0.00     0.251 C 
ATOM     28  N   PHE     6      61.735  39.240  50.913  1.00  0.00    -0.337 N 
ATOM     29  H   PHE     6      61.216  38.630  51.511  1.00 99.99     0.164 HD
ATOM     30  O   ALA     5      63.029  41.079  50.794  1.00  0.00    -0.271 OA
BRANCH  28  31
ATOM     31  CA  PHE     6      62.019  38.662  49.583  1.00  0.00     0.164 C 
BRANCH  31  32
ATOM     32  C   PHE     6      63.529  38.404  49.378  1.00  0.00     0.251 C 
ATOM     33  O   PHE     6      64.083  37.442  49.907  1.00  0.00    -0.271 OA
ATOM     34  N   ALA     7      64.151  39.259  48.563  1.00  0.00    -0.336 N 
ATOM     35  H   ALA     7      63.623  39.968  48.090  1.00 99.99     0.164 HD
BRANCH  34  36
ATOM     36  CA  ALA     7      65.588  39.266  48.203  1.00  0.00     0.168 C 
ATOM     37  CB  ALA     7      65.793  38.577  46.848  1.00  0.00     0.036 C 
BRANCH  36  38
ATOM     38  C   ALA     7      66.101  40.716  48.088  1.00  0.00     0.206 C 
ATOM     39  O   ALA     7      66.612  41.235  49.103  1.00 99.99    -0.646 OA
ATOM     40  OXT ALA     7      65.819  41.319  47.027  1.00 99.99    -0.646 OA
ENDBRANCH  36  38
ENDBRANCH  34  36
ENDBRANCH  31  32
BRANCH  31  41
ATOM     41  CB  PHE     6      61.460  39.652  48.549  1.00  0.00     0.056 C 
BRANCH  41  42
ATOM     42  CG  PHE     6      60.330  39.083  47.691  1.00  0.00    -0.044 A 
ATOM     43  CD2 PHE     6      60.561  38.822  46.346  1.00  0.00     0.008 A 
ATOM     44  CE2 PHE     6      59.548  38.295  45.557  1.00  0.00     0.001 A 
ATOM     45  CZ  PHE     6      58.301  38.032  46.111  1.00  0.00     0.000 A 
ATOM     46  CE1 PHE     6      58.070  38.292  47.457  1.00  0.00     0.001 A 
ATOM     47  CD1 PHE     6      59.080  38.830  48.245  1.00  0.00     0.008 A 
ENDBRANCH  41  42
ENDBRANCH  31  41
ENDBRANCH  28  31
ENDBRANCH  25  27
ENDBRANCH  22  25
ENDBRANCH  20  21
BRANCH  20  48
ATOM     48  CB  LYS     4      57.644  40.581  53.184  1.00  0.00     0.032 C 
BRANCH  48  49
ATOM     49  CG  LYS     4      56.721  40.527  54.402  1.00  0.00     0.004 C 
BRANCH  49  50
ATOM     50  CD  LYS     4      55.276  40.422  53.909  1.00  0.00     0.032 C 
BRANCH  50  51
ATOM     51  CE  LYS     4      54.907  38.994  53.501  1.00  0.00     0.206 C 
BRANCH  51  52
ATOM     52  NZ  LYS     4      54.547  38.191  54.680  1.00  0.00    -0.064 N 
ATOM     53  HZ1 LYS     4      55.335  37.643  54.964  1.00 99.99     0.275 HD
ATOM     54  HZ2 LYS     4      54.269  38.789  55.431  1.00 99.99     0.275 HD
ATOM     55  HZ3 LYS     4      53.790  37.579  54.446  1.00 99.99     0.275 HD
ENDBRANCH  51  52
ENDBRANCH  50  51
ENDBRANCH  49  50
ENDBRANCH  48  49
ENDBRANCH  20  48
ENDBRANCH  17  20
ENDBRANCH  15  16
BRANCH  15  56
ATOM     56  CB  LEU     3      54.470  42.187  49.521  1.00  0.00     0.032 C 
BRANCH  56  57
ATOM     57  CG  LEU     3      54.466  40.831  50.244  1.00  0.00     0.002 C 
ATOM     58  CD2 LEU     3      55.332  39.832  49.475  1.00  0.00     0.000 C 
ATOM     59  CD1 LEU     3      53.046  40.280  50.409  1.00  0.00     0.000 C 
ENDBRANCH  56  57
ENDBRANCH  15  56
ENDBRANCH  12  15
ENDBRANCH  10  11
BRANCH  10  60
ATOM     60  CB  LYS     2      58.291  41.960  46.583  1.00  0.00     0.032 C 
BRANCH  60  61
ATOM     61  CG  LYS     2      58.384  41.865  45.052  1.00  0.00     0.004 C 
BRANCH  61  62
ATOM     62  CD  LYS     2      59.814  41.936  44.512  1.00  0.00     0.032 C 
BRANCH  62  63
ATOM     63  CE  LYS     2      60.008  43.231  43.716  1.00  0.00     0.206 C 
BRANCH  63  64
ATOM     64  NZ  LYS     2      59.145  43.292  42.526  1.00  0.00    -0.064 N 
ATOM     65  HZ3 LYS     2      59.683  43.094  41.707  1.00 99.99     0.275 HD
ATOM     66  HZ1 LYS     2      58.415  42.613  42.611  1.00 99.99     0.275 HD
ATOM     67  HZ2 LYS     2      58.738  44.202  42.450  1.00 99.99     0.275 HD
ENDBRANCH  63  64
ENDBRANCH  62  63
ENDBRANCH  61  62
ENDBRANCH  60  61
ENDBRANCH  10  60
ENDBRANCH   8  10
ENDBRANCH   5   6
BRANCH   5  68
ATOM     68  CB  LYS     1      62.785  43.499  48.185  1.00  0.00     0.040 C 
BRANCH  68  69
ATOM     69  CG  LYS     1      64.168  43.959  48.684  1.00  0.00     0.004 C 
BRANCH  69  70
ATOM     70  CD  LYS     1      64.395  45.479  48.612  1.00  0.00     0.032 C 
BRANCH  70  71
ATOM     71  CE  LYS     1      65.729  45.876  49.261  1.00  0.00     0.206 C 
BRANCH  71  72
ATOM     72  NZ  LYS     1      66.005  47.324  49.209  1.00  0.00    -0.064 N 
ATOM     73  HZ1 LYS     1      66.776  47.540  49.812  1.00 99.99     0.275 HD
ATOM     74  HZ2 LYS     1      66.244  47.595  48.276  1.00 99.99     0.275 HD
ATOM     75  HZ3 LYS     1      65.205  47.841  49.511  1.00 99.99     0.275 HD
ENDBRANCH  71  72
ENDBRANCH  70  71
ENDBRANCH  69  70
ENDBRANCH  68  69
ENDBRANCH   5  68
ENDBRANCH   1   5
TORSDOF 33
ENDMDL
MODEL 7
REMARK VINA RESULT:      -3.9      2.373      7.773
REMARK WARNING: 32 MAX_TORS EXCEEDED!!!
REMARK  33 active torsions:
REMARK  status: ('A' for Active; 'I' for Inactive)
REMARK    1  A    between atoms: N_1  and  CA_2 
REMARK    2  A    between atoms: CA_2  and  C_3 
REMARK    3  A    between atoms: CA_2  and  CB_5 
REMARK       I    between atoms: C_3  and  N_16 
REMARK    4  A    between atoms: CB_5  and  CG_6 
REMARK    5  A    between atoms: CG_6  and  CD_7 
REMARK    6  A    between atoms: CD_7  and  CE_8 
REMARK    7  A    between atoms: CE_8  and  NZ_9 
REMARK    8  A    between atoms: N_16  and  CA_17 
REMARK    9  A    between atoms: CA_17  and  C_18 
REMARK   10  A    between atoms: CA_17  and  CB_20 
REMARK       I    between atoms: C_18  and  N_29 
REMARK   11  A    between atoms: CB_20  and  CG_21 
REMARK   12  A    between atoms: CG_21  and  CD_22 
REMARK   13  A    between atoms: CD_22  and  CE_23 
REMARK   14  A    between atoms: CE_23  and  NZ_24 
REMARK   15  A    between atoms: N_29  and  CA_30 
REMARK   16  A    between atoms: CA_30  and  C_31 
REMARK   17  A    between atoms: CA_30  and  CB_33 
REMARK       I    between atoms: C_31  and  N_38 
REMARK   18  A    between atoms: CB_33  and  CG_34 
REMARK   19  A    between atoms: N_38  and  CA_39 
REMARK   20  A    between atoms: CA_39  and  C_40 
REMARK   21  A    between atoms: CA_39  and  CB_42 
REMARK       I    between atoms: C_40  and  N_51 
REMARK   22  A    between atoms: CB_42  and  CG_43 
REMARK   23  A    between atoms: CG_43  and  CD_44 
REMARK   24  A    between atoms: CD_44  and  CE_45 
REMARK   25  A    between atoms: CE_45  and  NZ_46 
REMARK   26  A    between atoms: N_51  and  CA_52 
REMARK   27  A    between atoms: CA_52  and  C_53 
REMARK       I    between atoms: C_53  and  N_57 
REMARK   28  A    between atoms: N_57  and  CA_58 
REMARK   29  A    between atoms: CA_58  and  C_59 
REMARK   30  A    between atoms: CA_58  and  CB_61 
REMARK       I    between atoms: C_59  and  N_69 
REMARK   31  A    between atoms: CB_61  and  CG_62 
REMARK   32  A    between atoms: N_69  and  CA_70 
REMARK   33  A    between atoms: CA_70  and  C_71 
ROOT
ATOM      1  N   LYS     1      60.312  43.372  47.049  1.00  0.00    -0.058 N 
ATOM      2  H1  LYS     1      60.989  43.940  46.583  1.00 99.99     0.276 HD
ATOM      3  H2  LYS     1      60.100  43.767  47.921  1.00 99.99     0.276 HD
ATOM      4  H3  LYS     1      60.735  42.496  47.252  1.00 99.99     0.276 HD
ENDROOT
BRANCH   1   5
ATOM      5  CA  LYS     1      59.130  43.221  46.171  1.00  0.00     0.255 C 
BRANCH   5   6
ATOM      6  C   LYS     1      57.868  43.312  47.062  1.00  0.00     0.259 C 
ATOM      7  O   LYS     1      57.226  44.353  46.958  1.00  0.00    -0.271 OA
ATOM      8  N   LYS     2      57.778  42.515  48.141  1.00  0.00    -0.338 N 
ATOM      9  H   LYS     2      58.512  41.874  48.361  1.00 99.99     0.164 HD
BRANCH   8  10
ATOM     10  CA  LYS     2      56.622  42.430  49.075  1.00  0.00     0.159 C 
BRANCH  10  11
ATOM     11  C   LYS     2      56.939  42.404  50.588  1.00  0.00     0.251 C 
ATOM     12  N   LEU     3      57.773  41.456  51.035  1.00  0.00    -0.338 N 
ATOM     13  H   LEU     3      58.079  40.715  50.441  1.00 99.99     0.164 HD
ATOM     14  O   LYS     2      56.469  43.284  51.305  1.00  0.00    -0.271 OA
BRANCH  12  15
ATOM     15  CA  LEU     3      58.271  41.352  52.427  1.00  0.00     0.159 C 
BRANCH  15  16
ATOM     16  C   LEU     3      59.583  42.128  52.677  1.00  0.00     0.251 C 
ATOM     17  N   LYS     4      60.670  41.662  52.050  1.00  0.00    -0.338 N 
ATOM     18  H   LYS     4      60.589  40.900  51.408  1.00 99.99     0.164 HD
ATOM     19  O   LEU     3      59.504  43.267  53.129  1.00  0.00    -0.271 OA
BRANCH  17  20
ATOM     20  CA  LYS     4      62.042  42.226  52.119  1.00  0.00     0.159 C 
BRANCH  20  21
ATOM     21  C   LYS     4      62.370  43.436  51.207  1.00  0.00     0.251 C 
ATOM     22  N   ALA     5      63.337  43.257  50.311  1.00  0.00    -0.338 N 
ATOM     23  H   ALA     5      63.916  42.440  50.342  1.00 99.99     0.164 HD
ATOM     24  O   LYS     4      61.857  44.535  51.410  1.00  0.00    -0.271 OA
BRANCH  22  25
ATOM     25  CA  ALA     5      63.715  44.222  49.255  1.00  0.00     0.159 C 
ATOM     26  CB  ALA     5      64.890  45.048  49.790  1.00  0.00     0.034 C 
BRANCH  25  27
ATOM     27  C   ALA     5      64.084  43.550  47.910  1.00  0.00     0.251 C 
ATOM     28  N   PHE     6      63.943  42.227  47.880  1.00  0.00    -0.337 N 
ATOM     29  H   PHE     6      63.744  41.730  48.724  1.00 99.99     0.164 HD
ATOM     30  O   ALA     5      64.545  44.198  46.973  1.00  0.00    -0.271 OA
BRANCH  28  31
ATOM     31  CA  PHE     6      64.198  41.344  46.723  1.00  0.00     0.164 C 
BRANCH  31  32
ATOM     32  C   PHE     6      63.043  40.341  46.498  1.00  0.00     0.251 C 
ATOM     33  O   PHE     6      62.987  39.661  45.476  1.00  0.00    -0.271 OA
ATOM     34  N   ALA     7      62.166  40.243  47.500  1.00  0.00    -0.336 N 
ATOM     35  H   ALA     7      62.319  40.760  48.346  1.00 99.99     0.164 HD
BRANCH  34  36
ATOM     36  CA  ALA     7      60.959  39.386  47.550  1.00  0.00     0.168 C 
ATOM     37  CB  ALA     7      61.309  38.023  48.159  1.00  0.00     0.036 C 
BRANCH  36  38
ATOM     38  C   ALA     7      59.877  40.043  48.431  1.00  0.00     0.206 C 
ATOM     39  O   ALA     7      58.697  39.656  48.291  1.00 99.99    -0.646 OA
ATOM     40  OXT ALA     7      60.241  41.031  49.109  1.00 99.99    -0.646 OA
ENDBRANCH  36  38
ENDBRANCH  34  36
ENDBRANCH  31  32
BRANCH  31  41
ATOM     41  CB  PHE     6      65.531  40.632  47.004  1.00  0.00     0.056 C 
BRANCH  41  42
ATOM     42  CG  PHE     6      66.765  41.447  46.618  1.00  0.00    -0.044 A 
ATOM     43  CD2 PHE     6      67.125  41.548  45.280  1.00  0.00     0.008 A 
ATOM     44  CE2 PHE     6      68.236  42.293  44.913  1.00  0.00     0.001 A 
ATOM     45  CZ  PHE     6      68.993  42.936  45.886  1.00  0.00     0.000 A 
ATOM     46  CE1 PHE     6      68.632  42.836  47.225  1.00  0.00     0.001 A 
ATOM     47  CD1 PHE     6      67.526  42.082  47.593  1.00  0.00     0.008 A 
ENDBRANCH  41  42
ENDBRANCH  31  41
ENDBRANCH  28  31
ENDBRANCH  25  27
ENDBRANCH  22  25
ENDBRANCH  20  21
BRANCH  20  48
ATOM     48  CB  LYS     4      63.052  41.113  51.806  1.00  0.00     0.032 C 
BRANCH  48  49
ATOM     49  CG  LYS     4      62.445  39.727  51.584  1.00  0.00     0.004 C 
BRANCH  49  50
ATOM     50  CD  LYS     4      63.585  38.720  51.417  1.00  0.00     0.032 C 
BRANCH  50  51
ATOM     51  CE  LYS     4      64.353  38.928  50.111  1.00  0.00     0.206 C 
BRANCH  51  52
ATOM     52  NZ  LYS     4      65.621  38.181  50.126  1.00  0.00    -0.064 N 
ATOM     53  HZ1 LYS     4      65.940  38.045  49.187  1.00 99.99     0.275 HD
ATOM     54  HZ2 LYS     4      66.311  38.686  50.643  1.00 99.99     0.275 HD
ATOM     55  HZ3 LYS     4      65.475  37.288  50.554  1.00 99.99     0.275 HD
ENDBRANCH  51  52
ENDBRANCH  50  51
ENDBRANCH  49  50
ENDBRANCH  48  49
ENDBRANCH  20  48
ENDBRANCH  17  20
ENDBRANCH  15  16
BRANCH  15  56
ATOM     56  CB  LEU     3      58.408  39.864  52.792  1.00  0.00     0.032 C 
BRANCH  56  57
ATOM     57  CG  LEU     3      58.035  38.891  51.662  1.00  0.00     0.002 C 
ATOM     58  CD2 LEU     3      56.792  38.092  52.056  1.00  0.00     0.000 C 
ATOM     59  CD1 LEU     3      59.188  37.940  51.327  1.00  0.00     0.000 C 
ENDBRANCH  56  57
ENDBRANCH  15  56
ENDBRANCH  12  15
ENDBRANCH  10  11
BRANCH  10  60
ATOM     60  CB  LYS     2      55.644  41.313  48.669  1.00  0.00     0.032 C 
BRANCH  60  61
ATOM     61  CG  LYS     2      54.362  41.371  49.514  1.00  0.00     0.004 C 
BRANCH  61  62
ATOM     62  CD  LYS     2      54.119  40.117  50.357  1.00  0.00     0.032 C 
BRANCH  62  63
ATOM     63  CE  LYS     2      52.614  39.875  50.514  1.00  0.00     0.206 C 
BRANCH  63  64
ATOM     64  NZ  LYS     2      51.813  41.029  50.076  1.00  0.00    -0.064 N 
ATOM     65  HZ3 LYS     2      50.861  40.906  50.355  1.00 99.99     0.275 HD
ATOM     66  HZ1 LYS     2      52.173  41.862  50.498  1.00 99.99     0.275 HD
ATOM     67  HZ2 LYS     2      51.864  41.118  49.082  1.00 99.99     0.275 HD
ENDBRANCH  63  64
ENDBRANCH  62  63
ENDBRANCH  61  62
ENDBRANCH  60  61
ENDBRANCH  10  60
ENDBRANCH   8  10
ENDBRANCH   5   6
BRANCH   5  68
ATOM     68  CB  LYS     1      59.203  41.978  45.252  1.00  0.00     0.040 C 
BRANCH  68  69
ATOM     69  CG  LYS     1      57.879  41.727  44.506  1.00  0.00     0.004 C 
BRANCH  69  70
ATOM     70  CD  LYS     1      58.033  41.534  42.988  1.00  0.00     0.032 C 
BRANCH  70  71
ATOM     71  CE  LYS     1      59.347  42.145  42.477  1.00  0.00     0.206 C 
BRANCH  71  72
ATOM     72  NZ  LYS     1      59.155  43.337  41.630  1.00  0.00    -0.064 N 
ATOM     73  HZ1 LYS     1      58.382  43.872  41.975  1.00 99.99     0.275 HD
ATOM     74  HZ2 LYS     1      59.976  43.909  41.652  1.00 99.99     0.275 HD
ATOM     75  HZ3 LYS     1      58.964  43.066  40.687  1.00 99.99     0.275 HD
ENDBRANCH  71  72
ENDBRANCH  70  71
ENDBRANCH  69  70
ENDBRANCH  68  69
ENDBRANCH   5  68
ENDBRANCH   1   5
TORSDOF 33
ENDMDL
MODEL 8
REMARK VINA RESULT:      -3.9      2.654      7.415
REMARK WARNING: 32 MAX_TORS EXCEEDED!!!
REMARK  33 active torsions:
REMARK  status: ('A' for Active; 'I' for Inactive)
REMARK    1  A    between atoms: N_1  and  CA_2 
REMARK    2  A    between atoms: CA_2  and  C_3 
REMARK    3  A    between atoms: CA_2  and  CB_5 
REMARK       I    between atoms: C_3  and  N_16 
REMARK    4  A    between atoms: CB_5  and  CG_6 
REMARK    5  A    between atoms: CG_6  and  CD_7 
REMARK    6  A    between atoms: CD_7  and  CE_8 
REMARK    7  A    between atoms: CE_8  and  NZ_9 
REMARK    8  A    between atoms: N_16  and  CA_17 
REMARK    9  A    between atoms: CA_17  and  C_18 
REMARK   10  A    between atoms: CA_17  and  CB_20 
REMARK       I    between atoms: C_18  and  N_29 
REMARK   11  A    between atoms: CB_20  and  CG_21 
REMARK   12  A    between atoms: CG_21  and  CD_22 
REMARK   13  A    between atoms: CD_22  and  CE_23 
REMARK   14  A    between atoms: CE_23  and  NZ_24 
REMARK   15  A    between atoms: N_29  and  CA_30 
REMARK   16  A    between atoms: CA_30  and  C_31 
REMARK   17  A    between atoms: CA_30  and  CB_33 
REMARK       I    between atoms: C_31  and  N_38 
REMARK   18  A    between atoms: CB_33  and  CG_34 
REMARK   19  A    between atoms: N_38  and  CA_39 
REMARK   20  A    between atoms: CA_39  and  C_40 
REMARK   21  A    between atoms: CA_39  and  CB_42 
REMARK       I    between atoms: C_40  and  N_51 
REMARK   22  A    between atoms: CB_42  and  CG_43 
REMARK   23  A    between atoms: CG_43  and  CD_44 
REMARK   24  A    between atoms: CD_44  and  CE_45 
REMARK   25  A    between atoms: CE_45  and  NZ_46 
REMARK   26  A    between atoms: N_51  and  CA_52 
REMARK   27  A    between atoms: CA_52  and  C_53 
REMARK       I    between atoms: C_53  and  N_57 
REMARK   28  A    between atoms: N_57  and  CA_58 
REMARK   29  A    between atoms: CA_58  and  C_59 
REMARK   30  A    between atoms: CA_58  and  CB_61 
REMARK       I    between atoms: C_59  and  N_69 
REMARK   31  A    between atoms: CB_61  and  CG_62 
REMARK   32  A    between atoms: N_69  and  CA_70 
REMARK   33  A    between atoms: CA_70  and  C_71 
ROOT
ATOM      1  N   LYS     1      66.329  44.020  48.725  1.00  0.00    -0.058 N 
ATOM      2  H1  LYS     1      66.369  43.592  49.627  1.00 99.99     0.276 HD
ATOM      3  H2  LYS     1      66.771  43.442  48.069  1.00 99.99     0.276 HD
ATOM      4  H3  LYS     1      66.874  44.850  48.756  1.00 99.99     0.276 HD
ENDROOT
BRANCH   1   5
ATOM      5  CA  LYS     1      64.914  44.305  48.395  1.00  0.00     0.255 C 
BRANCH   5   6
ATOM      6  C   LYS     1      64.685  43.902  46.919  1.00  0.00     0.259 C 
ATOM      7  O   LYS     1      65.430  44.443  46.106  1.00  0.00    -0.271 OA
ATOM      8  N   LYS     2      63.501  43.371  46.568  1.00  0.00    -0.338 N 
ATOM      9  H   LYS     2      62.783  43.235  47.249  1.00 99.99     0.164 HD
BRANCH   8  10
ATOM     10  CA  LYS     2      63.126  42.880  45.213  1.00  0.00     0.159 C 
BRANCH  10  11
ATOM     11  C   LYS     2      61.622  42.872  44.858  1.00  0.00     0.251 C 
ATOM     12  N   LEU     3      60.751  42.578  45.833  1.00  0.00    -0.338 N 
ATOM     13  H   LEU     3      61.064  42.251  46.722  1.00 99.99     0.164 HD
ATOM     14  O   LYS     2      61.281  43.195  43.722  1.00  0.00    -0.271 OA
BRANCH  12  15
ATOM     15  CA  LEU     3      59.276  42.632  45.698  1.00  0.00     0.159 C 
BRANCH  15  16
ATOM     16  C   LEU     3      58.560  43.202  46.943  1.00  0.00     0.251 C 
ATOM     17  N   LYS     4      57.837  42.330  47.655  1.00  0.00    -0.338 N 
ATOM     18  H   LYS     4      57.841  41.359  47.411  1.00 99.99     0.164 HD
ATOM     19  O   LEU     3      58.944  44.279  47.389  1.00  0.00    -0.271 OA
BRANCH  17  20
ATOM     20  CA  LYS     4      57.062  42.620  48.887  1.00  0.00     0.159 C 
BRANCH  20  21
ATOM     21  C   LYS     4      57.663  42.162  50.241  1.00  0.00     0.251 C 
ATOM     22  N   ALA     5      57.049  42.596  51.339  1.00  0.00    -0.338 N 
ATOM     23  H   ALA     5      56.342  43.303  51.281  1.00 99.99     0.164 HD
ATOM     24  O   LYS     4      58.730  41.552  50.283  1.00  0.00    -0.271 OA
BRANCH  22  25
ATOM     25  CA  ALA     5      57.365  42.173  52.721  1.00  0.00     0.159 C 
ATOM     26  CB  ALA     5      56.762  40.779  52.922  1.00  0.00     0.034 C 
BRANCH  25  27
ATOM     27  C   ALA     5      58.883  42.164  53.030  1.00  0.00     0.251 C 
ATOM     28  N   PHE     6      59.418  40.959  53.208  1.00  0.00    -0.337 N 
ATOM     29  H   PHE     6      58.825  40.156  53.264  1.00 99.99     0.164 HD
ATOM     30  O   ALA     5      59.515  43.208  53.175  1.00  0.00    -0.271 OA
BRANCH  28  31
ATOM     31  CA  PHE     6      60.839  40.662  53.487  1.00  0.00     0.164 C 
BRANCH  31  32
ATOM     32  C   PHE     6      61.495  39.857  52.343  1.00  0.00     0.251 C 
ATOM     33  O   PHE     6      62.002  38.757  52.555  1.00  0.00    -0.271 OA
ATOM     34  N   ALA     7      61.422  40.416  51.133  1.00  0.00    -0.336 N 
ATOM     35  H   ALA     7      60.914  41.272  51.011  1.00 99.99     0.164 HD
BRANCH  34  36
ATOM     36  CA  ALA     7      61.977  39.883  49.867  1.00  0.00     0.168 C 
ATOM     37  CB  ALA     7      60.912  39.061  49.131  1.00  0.00     0.036 C 
BRANCH  36  38
ATOM     38  C   ALA     7      62.411  41.042  48.947  1.00  0.00     0.206 C 
ATOM     39  O   ALA     7      61.522  41.802  48.508  1.00 99.99    -0.646 OA
ATOM     40  OXT ALA     7      63.609  41.038  48.580  1.00 99.99    -0.646 OA
ENDBRANCH  36  38
ENDBRANCH  34  36
ENDBRANCH  31  32
BRANCH  31  41
ATOM     41  CB  PHE     6      60.870  39.898  54.820  1.00  0.00     0.056 C 
BRANCH  41  42
ATOM     42  CG  PHE     6      61.849  40.472  55.844  1.00  0.00    -0.044 A 
ATOM     43  CD2 PHE     6      62.858  41.326  55.418  1.00  0.00     0.008 A 
ATOM     44  CE2 PHE     6      63.747  41.864  56.337  1.00  0.00     0.001 A 
ATOM     45  CZ  PHE     6      63.632  41.544  57.685  1.00  0.00     0.000 A 
ATOM     46  CE1 PHE     6      62.621  40.690  58.112  1.00  0.00     0.001 A 
ATOM     47  CD1 PHE     6      61.737  40.143  57.190  1.00  0.00     0.008 A 
ENDBRANCH  41  42
ENDBRANCH  31  41
ENDBRANCH  28  31
ENDBRANCH  25  27
ENDBRANCH  22  25
ENDBRANCH  20  21
BRANCH  20  48
ATOM     48  CB  LYS     4      55.667  41.993  48.756  1.00  0.00     0.032 C 
BRANCH  48  49
ATOM     49  CG  LYS     4      55.634  40.465  48.811  1.00  0.00     0.004 C 
BRANCH  49  50
ATOM     50  CD  LYS     4      54.176  40.009  48.711  1.00  0.00     0.032 C 
BRANCH  50  51
ATOM     51  CE  LYS     4      53.209  41.026  49.318  1.00  0.00     0.206 C 
BRANCH  51  52
ATOM     52  NZ  LYS     4      51.853  40.464  49.418  1.00  0.00    -0.064 N 
ATOM     53  HZ1 LYS     4      51.732  39.760  48.718  1.00 99.99     0.275 HD
ATOM     54  HZ2 LYS     4      51.715  40.062  50.323  1.00 99.99     0.275 HD
ATOM     55  HZ3 LYS     4      51.181  41.191  49.273  1.00 99.99     0.275 HD
ENDBRANCH  51  52
ENDBRANCH  50  51
ENDBRANCH  49  50
ENDBRANCH  48  49
ENDBRANCH  20  48
ENDBRANCH  17  20
ENDBRANCH  15  16
BRANCH  15  56
ATOM     56  CB  LEU     3      58.763  41.228  45.334  1.00  0.00     0.032 C 
BRANCH  56  57
ATOM     57  CG  LEU     3      57.627  41.211  44.299  1.00  0.00     0.002 C 
ATOM     58  CD2 LEU     3      56.382  40.561  44.906  1.00  0.00     0.000 C 
ATOM     59  CD1 LEU     3      58.035  40.473  43.020  1.00  0.00     0.000 C 
ENDBRANCH  56  57
ENDBRANCH  15  56
ENDBRANCH  12  15
ENDBRANCH  10  11
BRANCH  10  60
ATOM     60  CB  LYS     2      63.806  41.538  44.886  1.00  0.00     0.032 C 
BRANCH  60  61
ATOM     61  CG  LYS     2      64.630  41.640  43.594  1.00  0.00     0.004 C 
BRANCH  61  62
ATOM     62  CD  LYS     2      66.131  41.824  43.828  1.00  0.00     0.032 C 
BRANCH  62  63
ATOM     63  CE  LYS     2      66.912  40.723  43.103  1.00  0.00     0.206 C 
BRANCH  63  64
ATOM     64  NZ  LYS     2      66.079  39.547  42.806  1.00  0.00    -0.064 N 
ATOM     65  HZ3 LYS     2      65.897  39.039  43.647  1.00 99.99     0.275 HD
ATOM     66  HZ1 LYS     2      65.210  39.848  42.410  1.00 99.99     0.275 HD
ATOM     67  HZ2 LYS     2      66.549  38.957  42.151  1.00 99.99     0.275 HD
ENDBRANCH  63  64
ENDBRANCH  62  63
ENDBRANCH  61  62
ENDBRANCH  60  61
ENDBRANCH  10  60
ENDBRANCH   8  10
ENDBRANCH   5   6
BRANCH   5  68
ATOM     68  CB  LYS     1      64.475  45.742  48.765  1.00  0.00     0.040 C 
BRANCH  68  69
ATOM     69  CG  LYS     1      64.356  45.940  50.288  1.00  0.00     0.004 C 
BRANCH  69  70
ATOM     70  CD  LYS     1      62.933  45.753  50.842  1.00  0.00     0.032 C 
BRANCH  70  71
ATOM     71  CE  LYS     1      62.534  44.270  50.870  1.00  0.00     0.206 C 
BRANCH  71  72
ATOM     72  NZ  LYS     1      62.185  43.776  52.215  1.00  0.00    -0.064 N 
ATOM     73  HZ1 LYS     1      61.236  44.022  52.426  1.00 99.99     0.275 HD
ATOM     74  HZ2 LYS     1      62.272  42.780  52.248  1.00 99.99     0.275 HD
ATOM     75  HZ3 LYS     1      62.784  44.186  52.902  1.00 99.99     0.275 HD
ENDBRANCH  71  72
ENDBRANCH  70  71
ENDBRANCH  69  70
ENDBRANCH  68  69
ENDBRANCH   5  68
ENDBRANCH   1   5
TORSDOF 33
ENDMDL
MODEL 9
REMARK VINA RESULT:      -3.9      3.107      6.144
REMARK WARNING: 32 MAX_TORS EXCEEDED!!!
REMARK  33 active torsions:
REMARK  status: ('A' for Active; 'I' for Inactive)
REMARK    1  A    between atoms: N_1  and  CA_2 
REMARK    2  A    between atoms: CA_2  and  C_3 
REMARK    3  A    between atoms: CA_2  and  CB_5 
REMARK       I    between atoms: C_3  and  N_16 
REMARK    4  A    between atoms: CB_5  and  CG_6 
REMARK    5  A    between atoms: CG_6  and  CD_7 
REMARK    6  A    between atoms: CD_7  and  CE_8 
REMARK    7  A    between atoms: CE_8  and  NZ_9 
REMARK    8  A    between atoms: N_16  and  CA_17 
REMARK    9  A    between atoms: CA_17  and  C_18 
REMARK   10  A    between atoms: CA_17  and  CB_20 
REMARK       I    between atoms: C_18  and  N_29 
REMARK   11  A    between atoms: CB_20  and  CG_21 
REMARK   12  A    between atoms: CG_21  and  CD_22 
REMARK   13  A    between atoms: CD_22  and  CE_23 
REMARK   14  A    between atoms: CE_23  and  NZ_24 
REMARK   15  A    between atoms: N_29  and  CA_30 
REMARK   16  A    between atoms: CA_30  and  C_31 
REMARK   17  A    between atoms: CA_30  and  CB_33 
REMARK       I    between atoms: C_31  and  N_38 
REMARK   18  A    between atoms: CB_33  and  CG_34 
REMARK   19  A    between atoms: N_38  and  CA_39 
REMARK   20  A    between atoms: CA_39  and  C_40 
REMARK   21  A    between atoms: CA_39  and  CB_42 
REMARK       I    between atoms: C_40  and  N_51 
REMARK   22  A    between atoms: CB_42  and  CG_43 
REMARK   23  A    between atoms: CG_43  and  CD_44 
REMARK   24  A    between atoms: CD_44  and  CE_45 
REMARK   25  A    between atoms: CE_45  and  NZ_46 
REMARK   26  A    between atoms: N_51  and  CA_52 
REMARK   27  A    between atoms: CA_52  and  C_53 
REMARK       I    between atoms: C_53  and  N_57 
REMARK   28  A    between atoms: N_57  and  CA_58 
REMARK   29  A    between atoms: CA_58  and  C_59 
REMARK   30  A    between atoms: CA_58  and  CB_61 
REMARK       I    between atoms: C_59  and  N_69 
REMARK   31  A    between atoms: CB_61  and  CG_62 
REMARK   32  A    between atoms: N_69  and  CA_70 
REMARK   33  A    between atoms: CA_70  and  C_71 
ROOT
ATOM      1  N   LYS     1      64.506  38.872  48.681  1.00  0.00    -0.058 N 
ATOM      2  H1  LYS     1      63.550  38.664  48.885  1.00 99.99     0.276 HD
ATOM      3  H2  LYS     1      64.679  38.714  47.729  1.00 99.99     0.276 HD
ATOM      4  H3  LYS     1      65.072  38.214  49.165  1.00 99.99     0.276 HD
ENDROOT
BRANCH   1   5
ATOM      5  CA  LYS     1      64.794  40.261  49.106  1.00  0.00     0.255 C 
BRANCH   5   6
ATOM      6  C   LYS     1      63.762  40.642  50.194  1.00  0.00     0.259 C 
ATOM      7  O   LYS     1      63.157  39.699  50.698  1.00  0.00    -0.271 OA
ATOM      8  N   LYS     2      63.289  41.900  50.227  1.00  0.00    -0.338 N 
ATOM      9  H   LYS     2      63.601  42.577  49.561  1.00 99.99     0.164 HD
BRANCH   8  10
ATOM     10  CA  LYS     2      62.337  42.455  51.228  1.00  0.00     0.159 C 
BRANCH  10  11
ATOM     11  C   LYS     2      60.836  42.154  51.016  1.00  0.00     0.251 C 
ATOM     12  N   LEU     3      60.339  41.037  51.564  1.00  0.00    -0.338 N 
ATOM     13  H   LEU     3      60.937  40.358  51.983  1.00 99.99     0.164 HD
ATOM     14  O   LYS     2      60.149  42.975  50.413  1.00  0.00    -0.271 OA
BRANCH  12  15
ATOM     15  CA  LEU     3      58.908  40.652  51.554  1.00  0.00     0.159 C 
BRANCH  15  16
ATOM     16  C   LEU     3      58.218  40.864  50.189  1.00  0.00     0.251 C 
ATOM     17  N   LYS     4      57.500  41.986  50.060  1.00  0.00    -0.338 N 
ATOM     18  H   LYS     4      57.493  42.662  50.798  1.00 99.99     0.164 HD
ATOM     19  O   LEU     3      58.618  40.208  49.231  1.00  0.00    -0.271 OA
BRANCH  17  20
ATOM     20  CA  LYS     4      56.749  42.424  48.858  1.00  0.00     0.159 C 
BRANCH  20  21
ATOM     21  C   LYS     4      57.491  43.315  47.829  1.00  0.00     0.251 C 
ATOM     22  N   ALA     5      58.748  42.978  47.551  1.00  0.00    -0.338 N 
ATOM     23  H   ALA     5      59.223  42.286  48.099  1.00 99.99     0.164 HD
ATOM     24  O   LYS     4      56.983  44.354  47.413  1.00  0.00    -0.271 OA
BRANCH  22  25
ATOM     25  CA  ALA     5      59.590  43.599  46.505  1.00  0.00     0.159 C 
ATOM     26  CB  ALA     5      60.991  42.990  46.624  1.00  0.00     0.034 C 
BRANCH  25  27
ATOM     27  C   ALA     5      59.030  43.413  45.073  1.00  0.00     0.251 C 
ATOM     28  N   PHE     6      58.882  42.150  44.682  1.00  0.00    -0.337 N 
ATOM     29  H   PHE     6      59.244  41.409  45.248  1.00 99.99     0.164 HD
ATOM     30  O   ALA     5      58.817  44.374  44.337  1.00  0.00    -0.271 OA
BRANCH  28  31
ATOM     31  CA  PHE     6      58.347  41.690  43.383  1.00  0.00     0.164 C 
BRANCH  31  32
ATOM     32  C   PHE     6      57.552  40.373  43.521  1.00  0.00     0.251 C 
ATOM     33  O   PHE     6      57.336  39.659  42.544  1.00  0.00    -0.271 OA
ATOM     34  N   ALA     7      57.172  40.059  44.762  1.00  0.00    -0.336 N 
ATOM     35  H   ALA     7      57.458  40.638  45.530  1.00 99.99     0.164 HD
BRANCH  34  36
ATOM     36  CA  ALA     7      56.386  38.877  45.186  1.00  0.00     0.168 C 
ATOM     37  CB  ALA     7      57.327  37.713  45.518  1.00  0.00     0.036 C 
BRANCH  36  38
ATOM     38  C   ALA     7      55.566  39.208  46.449  1.00  0.00     0.206 C 
ATOM     39  O   ALA     7      56.126  39.080  47.558  1.00 99.99    -0.646 OA
ATOM     40  OXT ALA     7      54.345  39.427  46.273  1.00 99.99    -0.646 OA
ENDBRANCH  36  38
ENDBRANCH  34  36
ENDBRANCH  31  32
BRANCH  31  41
ATOM     41  CB  PHE     6      59.555  41.536  42.445  1.00  0.00     0.056 C 
BRANCH  41  42
ATOM     42  CG  PHE     6      59.410  42.279  41.117  1.00  0.00    -0.044 A 
ATOM     43  CD2 PHE     6      59.743  43.626  41.049  1.00  0.00     0.008 A 
ATOM     44  CE2 PHE     6      59.626  44.311  39.848  1.00  0.00     0.001 A 
ATOM     45  CZ  PHE     6      59.172  43.650  38.712  1.00  0.00     0.000 A 
ATOM     46  CE1 PHE     6      58.840  42.301  38.780  1.00  0.00     0.001 A 
ATOM     47  CD1 PHE     6      58.947  41.618  39.985  1.00  0.00     0.008 A 
ENDBRANCH  41  42
ENDBRANCH  31  41
ENDBRANCH  28  31
ENDBRANCH  25  27
ENDBRANCH  22  25
ENDBRANCH  20  21
BRANCH  20  48
ATOM     48  CB  LYS     4      55.487  43.174  49.306  1.00  0.00     0.032 C 
BRANCH  48  49
ATOM     49  CG  LYS     4      54.527  42.367  50.182  1.00  0.00     0.004 C 
BRANCH  49  50
ATOM     50  CD  LYS     4      53.941  41.232  49.338  1.00  0.00     0.032 C 
BRANCH  50  51
ATOM     51  CE  LYS     4      53.747  39.950  50.148  1.00  0.00     0.206 C 
BRANCH  51  52
ATOM     52  NZ  LYS     4      55.024  39.240  50.318  1.00  0.00    -0.064 N 
ATOM     53  HZ1 LYS     4      55.669  39.540  49.613  1.00 99.99     0.275 HD
ATOM     54  HZ2 LYS     4      55.406  39.431  51.221  1.00 99.99     0.275 HD
ATOM     55  HZ3 LYS     4      54.872  38.255  50.224  1.00 99.99     0.275 HD
ENDBRANCH  51  52
ENDBRANCH  50  51
ENDBRANCH  49  50
ENDBRANCH  48  49
ENDBRANCH  20  48
ENDBRANCH  17  20
ENDBRANCH  15  16
BRANCH  15  56
ATOM     56  CB  LEU     3      58.187  41.407  52.684  1.00  0.00     0.032 C 
BRANCH  56  57
ATOM     57  CG  LEU     3      57.182  40.560  53.480  1.00  0.00     0.002 C 
ATOM     58  CD2 LEU     3      55.789  41.187  53.388  1.00  0.00     0.000 C 
ATOM     59  CD1 LEU     3      57.597  40.415  54.947  1.00  0.00     0.000 C 
ENDBRANCH  56  57
ENDBRANCH  15  56
ENDBRANCH  12  15
ENDBRANCH  10  11
BRANCH  10  60
ATOM     60  CB  LYS     2      62.598  43.949  51.493  1.00  0.00     0.032 C 
BRANCH  60  61
ATOM     61  CG  LYS     2      63.526  44.543  50.422  1.00  0.00     0.004 C 
BRANCH  61  62
ATOM     62  CD  LYS     2      62.824  45.499  49.454  1.00  0.00     0.032 C 
BRANCH  62  63
ATOM     63  CE  LYS     2      63.658  46.772  49.280  1.00  0.00     0.206 C 
BRANCH  63  64
ATOM     64  NZ  LYS     2      64.997  46.651  49.878  1.00  0.00    -0.064 N 
ATOM     65  HZ3 LYS     2      65.570  47.416  49.585  1.00 99.99     0.275 HD
ATOM     66  HZ1 LYS     2      64.917  46.664  50.875  1.00 99.99     0.275 HD
ATOM     67  HZ2 LYS     2      65.417  45.789  49.595  1.00 99.99     0.275 HD
ENDBRANCH  63  64
ENDBRANCH  62  63
ENDBRANCH  61  62
ENDBRANCH  60  61
ENDBRANCH  10  60
ENDBRANCH   8  10
ENDBRANCH   5   6
BRANCH   5  68
ATOM     68  CB  LYS     1      64.906  41.253  47.924  1.00  0.00     0.040 C 
BRANCH  68  69
ATOM     69  CG  LYS     1      66.078  42.238  48.102  1.00  0.00     0.004 C 
BRANCH  69  70
ATOM     70  CD  LYS     1      65.805  43.652  47.561  1.00  0.00     0.032 C 
BRANCH  70  71
ATOM     71  CE  LYS     1      65.641  43.644  46.033  1.00  0.00     0.206 C 
BRANCH  71  72
ATOM     72  NZ  LYS     1      66.790  43.060  45.317  1.00  0.00    -0.064 N 
ATOM     73  HZ1 LYS     1      67.059  43.665  44.565  1.00 99.99     0.275 HD
ATOM     74  HZ2 LYS     1      67.567  42.959  45.940  1.00 99.99     0.275 HD
ATOM     75  HZ3 LYS     1      66.547  42.167  44.941  1.00 99.99     0.275 HD
ENDBRANCH  71  72
ENDBRANCH  70  71
ENDBRANCH  69  70
ENDBRANCH  68  69
ENDBRANCH   5  68
ENDBRANCH   1   5
TORSDOF 33
ENDMDL
