MODEL 1
REMARK VINA RESULT:      -5.3      0.000      0.000
REMARK WARNING: 32 MAX_TORS EXCEEDED!!!
REMARK  33 active torsions:
REMARK  status: ('A' for Active; 'I' for Inactive)
REMARK    1  A    between atoms: N_1  and  CA_2 
REMARK    2  A    between atoms: CA_2  and  C_3 
REMARK       I    between atoms: C_3  and  N_9 
REMARK    3  A    between atoms: N_9  and  CA_10 
REMARK    4  A    between atoms: CA_10  and  C_11 
REMARK    5  A    between atoms: CA_10  and  CB_13 
REMARK       I    between atoms: C_11  and  N_21 
REMARK    6  A    between atoms: CB_13  and  CG_14 
REMARK    7  A    between atoms: N_21  and  CA_22 
REMARK    8  A    between atoms: CA_22  and  C_23 
REMARK       I    between atoms: C_23  and  N_27 
REMARK    9  A    between atoms: N_27  and  CA_28 
REMARK   10  A    between atoms: CA_28  and  C_29 
REMARK   11  A    between atoms: CA_28  and  CB_31 
REMARK       I    between atoms: C_29  and  N_40 
REMARK   12  A    between atoms: CB_31  and  CG_32 
REMARK   13  A    between atoms: CG_32  and  CD_33 
REMARK   14  A    between atoms: CD_33  and  CE_34 
REMARK   15  A    between atoms: CE_34  and  NZ_35 
REMARK   16  A    between atoms: N_40  and  CA_41 
REMARK   17  A    between atoms: CA_41  and  CB_44 
REMARK   18  A    between atoms: CA_41  and  C_42 
REMARK       I    between atoms: C_42  and  N_49 
REMARK   19  A    between atoms: CB_44  and  CG_45 
REMARK   20  A    between atoms: N_49  and  CA_50 
REMARK   21  A    between atoms: CA_50  and  C_51 
REMARK   22  A    between atoms: CA_50  and  CB_53 
REMARK       I    between atoms: C_51  and  N_62 
REMARK   23  A    between atoms: CB_53  and  CG_54 
REMARK   24  A    between atoms: CG_54  and  CD_55 
REMARK   25  A    between atoms: CD_55  and  CE_56 
REMARK   26  A    between atoms: CE_56  and  NZ_57 
REMARK   27  A    between atoms: N_62  and  CA_63 
REMARK   28  A    between atoms: CA_63  and  CB_66 
REMARK   29  A    between atoms: CA_63  and  C_64 
REMARK   30  A    between atoms: CB_66  and  CG_67 
REMARK   31  A    between atoms: CG_67  and  CD_68 
REMARK   32  A    between atoms: CD_68  and  CE_69 
REMARK   33  A    between atoms: CE_69  and  NZ_70 
ROOT
ATOM      1  N   ALA     1      57.074  37.983  45.293  1.00  0.00    -0.058 N 
ATOM      2  H1  ALA     1      56.572  37.431  44.626  1.00 99.99     0.276 HD
ATOM      3  H2  ALA     1      58.052  37.810  45.183  1.00 99.99     0.276 HD
ATOM      4  H3  ALA     1      56.882  37.673  46.221  1.00 99.99     0.276 HD
ENDROOT
BRANCH   1   5
ATOM      5  CA  ALA     1      56.761  39.428  45.131  1.00  0.00     0.255 C 
ATOM      6  CB  ALA     1      55.259  39.553  44.832  1.00  0.00     0.042 C 
BRANCH   5   7
ATOM      7  C   ALA     1      57.171  40.403  46.275  1.00  0.00     0.259 C 
ATOM      8  O   ALA     1      57.326  39.993  47.427  1.00  0.00    -0.271 OA
ATOM      9  N   PHE     2      57.041  41.713  46.034  1.00  0.00    -0.337 N 
ATOM     10  H   PHE     2      56.508  42.050  45.260  1.00 99.99     0.164 HD
BRANCH   9  11
ATOM     11  CA  PHE     2      57.610  42.783  46.894  1.00  0.00     0.164 C 
BRANCH  11  12
ATOM     12  C   PHE     2      56.654  43.401  47.943  1.00  0.00     0.251 C 
ATOM     13  N   ALA     3      55.961  42.543  48.692  1.00  0.00    -0.338 N 
ATOM     14  H   ALA     3      55.969  41.565  48.492  1.00 99.99     0.164 HD
ATOM     15  O   PHE     2      56.719  44.603  48.198  1.00  0.00    -0.271 OA
BRANCH  13  16
ATOM     16  CA  ALA     3      55.037  42.925  49.785  1.00  0.00     0.159 C 
ATOM     17  CB  ALA     3      53.829  41.985  49.749  1.00  0.00     0.034 C 
BRANCH  16  18
ATOM     18  C   ALA     3      55.622  42.970  51.216  1.00  0.00     0.251 C 
ATOM     19  O   ALA     3      55.479  43.977  51.903  1.00  0.00    -0.271 OA
ATOM     20  N   LYS     4      56.239  41.874  51.658  1.00  0.00    -0.338 N 
ATOM     21  H   LYS     4      56.272  41.035  51.111  1.00 99.99     0.164 HD
BRANCH  20  22
ATOM     22  CA  LYS     4      56.925  41.753  52.967  1.00  0.00     0.159 C 
BRANCH  22  23
ATOM     23  C   LYS     4      58.414  42.166  52.963  1.00  0.00     0.251 C 
ATOM     24  N   LEU     5      59.267  41.219  52.585  1.00  0.00    -0.338 N 
ATOM     25  H   LEU     5      58.970  40.267  52.514  1.00 99.99     0.164 HD
ATOM     26  O   LYS     4      58.779  43.222  53.476  1.00  0.00    -0.271 OA
BRANCH  24  27
ATOM     27  CA  LEU     5      60.724  41.407  52.403  1.00  0.00     0.159 C 
BRANCH  27  28
ATOM     28  CB  LEU     5      61.409  40.037  52.318  1.00  0.00     0.032 C 
BRANCH  28  29
ATOM     29  CG  LEU     5      62.309  39.698  53.513  1.00  0.00     0.002 C 
ATOM     30  CD2 LEU     5      63.546  40.602  53.554  1.00  0.00     0.000 C 
ATOM     31  CD1 LEU     5      62.747  38.237  53.409  1.00  0.00     0.000 C 
ENDBRANCH  28  29
ENDBRANCH  27  28
BRANCH  27  32
ATOM     32  C   LEU     5      61.060  42.201  51.127  1.00  0.00     0.251 C 
ATOM     33  O   LEU     5      60.286  42.207  50.173  1.00  0.00    -0.271 OA
ATOM     34  N   LYS     6      62.110  43.018  51.227  1.00  0.00    -0.338 N 
ATOM     35  H   LYS     6      62.485  43.257  52.121  1.00 99.99     0.164 HD
BRANCH  34  36
ATOM     36  CA  LYS     6      62.658  43.811  50.107  1.00  0.00     0.159 C 
BRANCH  36  37
ATOM     37  C   LYS     6      63.738  43.061  49.289  1.00  0.00     0.251 C 
ATOM     38  O   LYS     6      64.032  41.893  49.539  1.00  0.00    -0.271 OA
ATOM     39  N   LYS     7      64.235  43.709  48.239  1.00  0.00    -0.336 N 
ATOM     40  H   LYS     7      63.915  44.624  48.002  1.00 99.99     0.164 HD
BRANCH  39  41
ATOM     41  CA  LYS     7      65.382  43.238  47.431  1.00  0.00     0.168 C 
BRANCH  41  42
ATOM     42  CB  LYS     7      65.232  43.602  45.953  1.00  0.00     0.033 C 
BRANCH  42  43
ATOM     43  CG  LYS     7      65.397  42.516  44.895  1.00  0.00     0.004 C 
BRANCH  43  44
ATOM     44  CD  LYS     7      65.542  41.230  45.708  1.00  0.00     0.032 C 
BRANCH  44  45
ATOM     45  CE  LYS     7      66.825  40.443  45.458  1.00  0.00     0.206 C 
BRANCH  45  46
ATOM     46  NZ  LYS     7      67.938  41.401  45.414  1.00  0.00    -0.064 N 
ATOM     47  HZ1 LYS     7      68.290  41.473  44.481  1.00 99.99     0.275 HD
ATOM     48  HZ2 LYS     7      67.615  42.295  45.725  1.00 99.99     0.275 HD
ATOM     49  HZ3 LYS     7      68.665  41.086  46.024  1.00 99.99     0.275 HD
ENDBRANCH  45  46
ENDBRANCH  44  45
ENDBRANCH  43  44
ENDBRANCH  42  43
ENDBRANCH  41  42
BRANCH  41  50
ATOM     50  C   LYS     7      66.633  44.004  47.884  1.00  0.00     0.206 C 
ATOM     51  OXT LYS     7      67.042  44.860  47.065  1.00 99.99    -0.646 OA
ATOM     52  O   LYS     7      67.132  43.736  48.999  1.00 99.99    -0.646 OA
ENDBRANCH  41  50
ENDBRANCH  39  41
ENDBRANCH  36  37
BRANCH  36  53
ATOM     53  CB  LYS     6      63.213  45.120  50.677  1.00  0.00     0.032 C 
BRANCH  53  54
ATOM     54  CG  LYS     6      62.619  46.308  49.917  1.00  0.00     0.004 C 
BRANCH  54  55
ATOM     55  CD  LYS     6      63.686  47.253  49.373  1.00  0.00     0.032 C 
BRANCH  55  56
ATOM     56  CE  LYS     6      65.058  46.685  49.736  1.00  0.00     0.206 C 
BRANCH  56  57
ATOM     57  NZ  LYS     6      66.136  47.357  48.999  1.00  0.00    -0.064 N 
ATOM     58  HZ3 LYS     6      65.970  48.343  48.991  1.00 99.99     0.275 HD
ATOM     59  HZ2 LYS     6      66.161  47.007  48.064  1.00 99.99     0.275 HD
ATOM     60  HZ1 LYS     6      67.006  47.169  49.453  1.00 99.99     0.275 HD
ENDBRANCH  56  57
ENDBRANCH  55  56
ENDBRANCH  54  55
ENDBRANCH  53  54
ENDBRANCH  36  53
ENDBRANCH  34  36
ENDBRANCH  27  32
ENDBRANCH  24  27
ENDBRANCH  22  23
BRANCH  22  61
ATOM     61  CB  LYS     4      56.848  40.306  53.461  1.00  0.00     0.032 C 
BRANCH  61  62
ATOM     62  CG  LYS     4      56.386  39.291  52.417  1.00  0.00     0.004 C 
BRANCH  62  63
ATOM     63  CD  LYS     4      55.992  38.009  53.154  1.00  0.00     0.032 C 
BRANCH  63  64
ATOM     64  CE  LYS     4      54.492  37.730  53.074  1.00  0.00     0.206 C 
BRANCH  64  65
ATOM     65  NZ  LYS     4      53.804  38.287  54.248  1.00  0.00    -0.064 N 
ATOM     66  HZ3 LYS     4      53.763  37.595  54.969  1.00 99.99     0.275 HD
ATOM     67  HZ2 LYS     4      52.876  38.560  53.999  1.00 99.99     0.275 HD
ATOM     68  HZ1 LYS     4      54.309  39.083  54.585  1.00 99.99     0.275 HD
ENDBRANCH  64  65
ENDBRANCH  63  64
ENDBRANCH  62  63
ENDBRANCH  61  62
ENDBRANCH  22  61
ENDBRANCH  20  22
ENDBRANCH  16  18
ENDBRANCH  13  16
ENDBRANCH  11  12
BRANCH  11  69
ATOM     69  CB  PHE     2      58.236  43.841  45.974  1.00  0.00     0.056 C 
BRANCH  69  70
ATOM     70  CG  PHE     2      59.473  43.352  45.215  1.00  0.00    -0.044 A 
ATOM     71  CD2 PHE     2      60.559  42.852  45.926  1.00  0.00     0.008 A 
ATOM     72  CE2 PHE     2      61.708  42.460  45.252  1.00  0.00     0.001 A 
ATOM     73  CZ  PHE     2      61.779  42.577  43.870  1.00  0.00     0.000 A 
ATOM     74  CE1 PHE     2      60.695  43.079  43.160  1.00  0.00     0.001 A 
ATOM     75  CD1 PHE     2      59.544  43.471  43.831  1.00  0.00     0.008 A 
ENDBRANCH  69  70
ENDBRANCH  11  69
ENDBRANCH   9  11
ENDBRANCH   5   7
ENDBRANCH   1   5
TORSDOF 33
ENDMDL
MODEL 2
REMARK VINA RESULT:      -5.2      2.909      9.010
REMARK WARNING: 32 MAX_TORS EXCEEDED!!!
REMARK  33 active torsions:
REMARK  status: ('A' for Active; 'I' for Inactive)
REMARK    1  A    between atoms: N_1  and  CA_2 
REMARK    2  A    between atoms: CA_2  and  C_3 
REMARK       I    between atoms: C_3  and  N_9 
REMARK    3  A    between atoms: N_9  and  CA_10 
REMARK    4  A    between atoms: CA_10  and  C_11 
REMARK    5  A    between atoms: CA_10  and  CB_13 
REMARK       I    between atoms: C_11  and  N_21 
REMARK    6  A    between atoms: CB_13  and  CG_14 
REMARK    7  A    between atoms: N_21  and  CA_22 
REMARK    8  A    between atoms: CA_22  and  C_23 
REMARK       I    between atoms: C_23  and  N_27 
REMARK    9  A    between atoms: N_27  and  CA_28 
REMARK   10  A    between atoms: CA_28  and  C_29 
REMARK   11  A    between atoms: CA_28  and  CB_31 
REMARK       I    between atoms: C_29  and  N_40 
REMARK   12  A    between atoms: CB_31  and  CG_32 
REMARK   13  A    between atoms: CG_32  and  CD_33 
REMARK   14  A    between atoms: CD_33  and  CE_34 
REMARK   15  A    between atoms: CE_34  and  NZ_35 
REMARK   16  A    between atoms: N_40  and  CA_41 
REMARK   17  A    between atoms: CA_41  and  CB_44 
REMARK   18  A    between atoms: CA_41  and  C_42 
REMARK       I    between atoms: C_42  and  N_49 
REMARK   19  A    between atoms: CB_44  and  CG_45 
REMARK   20  A    between atoms: N_49  and  CA_50 
REMARK   21  A    between atoms: CA_50  and  C_51 
REMARK   22  A    between atoms: CA_50  and  CB_53 
REMARK       I    between atoms: C_51  and  N_62 
REMARK   23  A    between atoms: CB_53  and  CG_54 
REMARK   24  A    between atoms: CG_54  and  CD_55 
REMARK   25  A    between atoms: CD_55  and  CE_56 
REMARK   26  A    between atoms: CE_56  and  NZ_57 
REMARK   27  A    between atoms: N_62  and  CA_63 
REMARK   28  A    between atoms: CA_63  and  CB_66 
REMARK   29  A    between atoms: CA_63  and  C_64 
REMARK   30  A    between atoms: CB_66  and  CG_67 
REMARK   31  A    between atoms: CG_67  and  CD_68 
REMARK   32  A    between atoms: CD_68  and  CE_69 
REMARK   33  A    between atoms: CE_69  and  NZ_70 
ROOT
ATOM      1  N   ALA     1      63.752  40.157  49.317  1.00  0.00    -0.058 N 
ATOM      2  H1  ALA     1      63.119  40.790  49.762  1.00 99.99     0.276 HD
ATOM      3  H2  ALA     1      63.442  39.996  48.380  1.00 99.99     0.276 HD
ATOM      4  H3  ALA     1      63.704  39.256  49.740  1.00 99.99     0.276 HD
ENDROOT
BRANCH   1   5
ATOM      5  CA  ALA     1      65.142  40.690  49.340  1.00  0.00     0.255 C 
ATOM      6  CB  ALA     1      66.027  39.658  50.056  1.00  0.00     0.042 C 
BRANCH   5   7
ATOM      7  C   ALA     1      65.789  41.120  47.990  1.00  0.00     0.259 C 
ATOM      8  O   ALA     1      65.685  40.411  46.987  1.00  0.00    -0.271 OA
ATOM      9  N   PHE     2      66.702  42.097  48.037  1.00  0.00    -0.337 N 
ATOM     10  H   PHE     2      67.114  42.385  48.900  1.00 99.99     0.164 HD
BRANCH   9  11
ATOM     11  CA  PHE     2      67.234  42.804  46.843  1.00  0.00     0.164 C 
BRANCH  11  12
ATOM     12  C   PHE     2      66.200  43.190  45.757  1.00  0.00     0.251 C 
ATOM     13  N   ALA     3      66.058  42.335  44.744  1.00  0.00    -0.338 N 
ATOM     14  H   ALA     3      66.678  41.561  44.635  1.00 99.99     0.164 HD
ATOM     15  O   PHE     2      65.417  44.117  45.959  1.00  0.00    -0.271 OA
BRANCH  13  16
ATOM     16  CA  ALA     3      65.088  42.488  43.634  1.00  0.00     0.159 C 
ATOM     17  CB  ALA     3      65.551  41.618  42.462  1.00  0.00     0.034 C 
BRANCH  16  18
ATOM     18  C   ALA     3      63.605  42.191  43.952  1.00  0.00     0.251 C 
ATOM     19  O   ALA     3      63.318  41.427  44.870  1.00  0.00    -0.271 OA
ATOM     20  N   LYS     4      62.685  42.821  43.221  1.00  0.00    -0.338 N 
ATOM     21  H   LYS     4      62.940  43.504  42.534  1.00 99.99     0.164 HD
BRANCH  20  22
ATOM     22  CA  LYS     4      61.221  42.610  43.329  1.00  0.00     0.159 C 
BRANCH  22  23
ATOM     23  C   LYS     4      60.557  43.267  44.561  1.00  0.00     0.251 C 
ATOM     24  N   LEU     5      60.863  42.719  45.733  1.00  0.00    -0.338 N 
ATOM     25  H   LEU     5      61.320  41.830  45.774  1.00 99.99     0.164 HD
ATOM     26  O   LYS     4      59.655  44.092  44.428  1.00  0.00    -0.271 OA
BRANCH  24  27
ATOM     27  CA  LEU     5      60.436  43.234  47.052  1.00  0.00     0.159 C 
BRANCH  27  28
ATOM     28  CB  LEU     5      59.289  42.369  47.592  1.00  0.00     0.032 C 
BRANCH  28  29
ATOM     29  CG  LEU     5      59.545  40.859  47.528  1.00  0.00     0.002 C 
ATOM     30  CD2 LEU     5      58.496  40.151  46.664  1.00  0.00     0.000 C 
ATOM     31  CD1 LEU     5      59.510  40.286  48.946  1.00  0.00     0.000 C 
ENDBRANCH  28  29
ENDBRANCH  27  28
BRANCH  27  32
ATOM     32  C   LEU     5      61.579  43.230  48.084  1.00  0.00     0.251 C 
ATOM     33  O   LEU     5      62.616  42.611  47.865  1.00  0.00    -0.271 OA
ATOM     34  N   LYS     6      61.437  44.093  49.092  1.00  0.00    -0.338 N 
ATOM     35  H   LYS     6      60.765  44.830  49.039  1.00 99.99     0.164 HD
BRANCH  34  36
ATOM     36  CA  LYS     6      62.369  44.201  50.234  1.00  0.00     0.159 C 
BRANCH  36  37
ATOM     37  C   LYS     6      61.809  43.599  51.547  1.00  0.00     0.251 C 
ATOM     38  O   LYS     6      61.907  44.196  52.616  1.00  0.00    -0.271 OA
ATOM     39  N   LYS     7      61.120  42.466  51.426  1.00  0.00    -0.336 N 
ATOM     40  H   LYS     7      60.977  42.045  50.533  1.00 99.99     0.164 HD
BRANCH  39  41
ATOM     41  CA  LYS     7      60.647  41.650  52.566  1.00  0.00     0.168 C 
BRANCH  41  42
ATOM     42  CB  LYS     7      59.126  41.481  52.558  1.00  0.00     0.033 C 
BRANCH  42  43
ATOM     43  CG  LYS     7      58.237  42.706  52.745  1.00  0.00     0.004 C 
BRANCH  43  44
ATOM     44  CD  LYS     7      57.165  42.550  51.666  1.00  0.00     0.032 C 
BRANCH  44  45
ATOM     45  CE  LYS     7      55.837  43.238  51.965  1.00  0.00     0.206 C 
BRANCH  45  46
ATOM     46  NZ  LYS     7      55.271  43.697  50.689  1.00  0.00    -0.064 N 
ATOM     47  HZ1 LYS     7      54.381  44.125  50.844  1.00 99.99     0.275 HD
ATOM     48  HZ2 LYS     7      55.896  44.356  50.271  1.00 99.99     0.275 HD
ATOM     49  HZ3 LYS     7      55.165  42.913  50.078  1.00 99.99     0.275 HD
ENDBRANCH  45  46
ENDBRANCH  44  45
ENDBRANCH  43  44
ENDBRANCH  42  43
ENDBRANCH  41  42
BRANCH  41  50
ATOM     50  C   LYS     7      61.187  40.224  52.391  1.00  0.00     0.206 C 
ATOM     51  OXT LYS     7      60.377  39.321  52.702  1.00 99.99    -0.646 OA
ATOM     52  O   LYS     7      62.350  40.070  51.959  1.00 99.99    -0.646 OA
ENDBRANCH  41  50
ENDBRANCH  39  41
ENDBRANCH  36  37
BRANCH  36  53
ATOM     53  CB  LYS     6      62.727  45.679  50.418  1.00  0.00     0.032 C 
BRANCH  53  54
ATOM     54  CG  LYS     6      63.869  46.056  49.473  1.00  0.00     0.004 C 
BRANCH  54  55
ATOM     55  CD  LYS     6      64.907  44.948  49.330  1.00  0.00     0.032 C 
BRANCH  55  56
ATOM     56  CE  LYS     6      66.290  45.595  49.261  1.00  0.00     0.206 C 
BRANCH  56  57
ATOM     57  NZ  LYS     6      66.538  46.207  47.949  1.00  0.00    -0.064 N 
ATOM     58  HZ3 LYS     6      67.520  46.205  47.761  1.00 99.99     0.275 HD
ATOM     59  HZ2 LYS     6      66.193  47.144  47.955  1.00 99.99     0.275 HD
ATOM     60  HZ1 LYS     6      66.063  45.677  47.248  1.00 99.99     0.275 HD
ENDBRANCH  56  57
ENDBRANCH  55  56
ENDBRANCH  54  55
ENDBRANCH  53  54
ENDBRANCH  36  53
ENDBRANCH  34  36
ENDBRANCH  27  32
ENDBRANCH  24  27
ENDBRANCH  22  23
BRANCH  22  61
ATOM     61  CB  LYS     4      60.916  41.110  43.385  1.00  0.00     0.032 C 
BRANCH  61  62
ATOM     62  CG  LYS     4      60.506  40.485  42.054  1.00  0.00     0.004 C 
BRANCH  62  63
ATOM     63  CD  LYS     4      59.014  40.156  42.132  1.00  0.00     0.032 C 
BRANCH  63  64
ATOM     64  CE  LYS     4      58.135  41.345  41.749  1.00  0.00     0.206 C 
BRANCH  64  65
ATOM     65  NZ  LYS     4      57.578  41.979  42.954  1.00  0.00    -0.064 N 
ATOM     66  HZ3 LYS     4      56.595  41.798  43.000  1.00 99.99     0.275 HD
ATOM     67  HZ2 LYS     4      57.731  42.966  42.920  1.00 99.99     0.275 HD
ATOM     68  HZ1 LYS     4      58.021  41.598  43.766  1.00 99.99     0.275 HD
ENDBRANCH  64  65
ENDBRANCH  63  64
ENDBRANCH  62  63
ENDBRANCH  61  62
ENDBRANCH  22  61
ENDBRANCH  20  22
ENDBRANCH  16  18
ENDBRANCH  13  16
ENDBRANCH  11  12
BRANCH  11  69
ATOM     69  CB  PHE     2      68.393  41.969  46.281  1.00  0.00     0.056 C 
BRANCH  69  70
ATOM     70  CG  PHE     2      69.626  42.793  45.898  1.00  0.00    -0.044 A 
ATOM     71  CD2 PHE     2      69.685  43.395  44.646  1.00  0.00     0.008 A 
ATOM     72  CE2 PHE     2      70.822  44.096  44.266  1.00  0.00     0.001 A 
ATOM     73  CZ  PHE     2      71.905  44.188  45.131  1.00  0.00     0.000 A 
ATOM     74  CE1 PHE     2      71.846  43.584  46.382  1.00  0.00     0.001 A 
ATOM     75  CD1 PHE     2      70.710  42.883  46.764  1.00  0.00     0.008 A 
ENDBRANCH  69  70
ENDBRANCH  11  69
ENDBRANCH   9  11
ENDBRANCH   5   7
ENDBRANCH   1   5
TORSDOF 33
ENDMDL
MODEL 3
REMARK VINA RESULT:      -5.2      2.765      6.580
REMARK WARNING: 32 MAX_TORS EXCEEDED!!!
REMARK  33 active torsions:
REMARK  status: ('A' for Active; 'I' for Inactive)
REMARK    1  A    between atoms: N_1  and  CA_2 
REMARK    2  A    between atoms: CA_2  and  C_3 
REMARK       I    between atoms: C_3  and  N_9 
REMARK    3  A    between atoms: N_9  and  CA_10 
REMARK    4  A    between atoms: CA_10  and  C_11 
REMARK    5  A    between atoms: CA_10  and  CB_13 
REMARK       I    between atoms: C_11  and  N_21 
REMARK    6  A    between atoms: CB_13  and  CG_14 
REMARK    7  A    between atoms: N_21  and  CA_22 
REMARK    8  A    between atoms: CA_22  and  C_23 
REMARK       I    between atoms: C_23  and  N_27 
REMARK    9  A    between atoms: N_27  and  CA_28 
REMARK   10  A    between atoms: CA_28  and  C_29 
REMARK   11  A    between atoms: CA_28  and  CB_31 
REMARK       I    between atoms: C_29  and  N_40 
REMARK   12  A    between atoms: CB_31  and  CG_32 
REMARK   13  A    between atoms: CG_32  and  CD_33 
REMARK   14  A    between atoms: CD_33  and  CE_34 
REMARK   15  A    between atoms: CE_34  and  NZ_35 
REMARK   16  A    between atoms: N_40  and  CA_41 
REMARK   17  A    between atoms: CA_41  and  CB_44 
REMARK   18  A    between atoms: CA_41  and  C_42 
REMARK       I    between atoms: C_42  and  N_49 
REMARK   19  A    between atoms: CB_44  and  CG_45 
REMARK   20  A    between atoms: N_49  and  CA_50 
REMARK   21  A    between atoms: CA_50  and  C_51 
REMARK   22  A    between atoms: CA_50  and  CB_53 
REMARK       I    between atoms: C_51  and  N_62 
REMARK   23  A    between atoms: CB_53  and  CG_54 
REMARK   24  A    between atoms: CG_54  and  CD_55 
REMARK   25  A    between atoms: CD_55  and  CE_56 
REMARK   26  A    between atoms: CE_56  and  NZ_57 
REMARK   27  A    between atoms: N_62  and  CA_63 
REMARK   28  A    between atoms: CA_63  and  CB_66 
REMARK   29  A    between atoms: CA_63  and  C_64 
REMARK   30  A    between atoms: CB_66  and  CG_67 
REMARK   31  A    between atoms: CG_67  and  CD_68 
REMARK   32  A    between atoms: CD_68  and  CE_69 
REMARK   33  A    between atoms: CE_69  and  NZ_70 
ROOT
ATOM      1  N   ALA     1      51.667  40.982  50.108  1.00  0.00    -0.058 N 
ATOM      2  H1  ALA     1      52.177  41.795  49.829  1.00 99.99     0.276 HD
ATOM      3  H2  ALA     1      51.070  40.702  49.357  1.00 99.99     0.276 HD
ATOM      4  H3  ALA     1      51.032  41.201  50.845  1.00 99.99     0.276 HD
ENDROOT
BRANCH   1   5
ATOM      5  CA  ALA     1      52.589  39.882  50.500  1.00  0.00     0.255 C 
ATOM      6  CB  ALA     1      52.295  38.677  49.594  1.00  0.00     0.042 C 
BRANCH   5   7
ATOM      7  C   ALA     1      54.118  40.179  50.532  1.00  0.00     0.259 C 
ATOM      8  O   ALA     1      54.920  39.318  50.901  1.00  0.00    -0.271 OA
ATOM      9  N   PHE     2      54.492  41.461  50.450  1.00  0.00    -0.337 N 
ATOM     10  H   PHE     2      53.838  42.204  50.585  1.00 99.99     0.164 HD
BRANCH   9  11
ATOM     11  CA  PHE     2      55.887  41.914  50.211  1.00  0.00     0.164 C 
BRANCH  11  12
ATOM     12  C   PHE     2      56.665  42.418  51.450  1.00  0.00     0.251 C 
ATOM     13  N   ALA     3      57.772  41.745  51.769  1.00  0.00    -0.338 N 
ATOM     14  H   ALA     3      58.004  40.892  51.308  1.00 99.99     0.164 HD
ATOM     15  O   PHE     2      56.381  43.505  51.953  1.00  0.00    -0.271 OA
BRANCH  13  16
ATOM     16  CA  ALA     3      58.688  42.096  52.881  1.00  0.00     0.159 C 
ATOM     17  CB  ALA     3      58.312  41.252  54.102  1.00  0.00     0.034 C 
BRANCH  16  18
ATOM     18  C   ALA     3      60.204  41.974  52.606  1.00  0.00     0.251 C 
ATOM     19  O   ALA     3      60.992  41.906  53.546  1.00  0.00    -0.271 OA
ATOM     20  N   LYS     4      60.591  41.912  51.331  1.00  0.00    -0.338 N 
ATOM     21  H   LYS     4      59.926  41.885  50.583  1.00 99.99     0.164 HD
BRANCH  20  22
ATOM     22  CA  LYS     4      62.000  41.867  50.871  1.00  0.00     0.159 C 
BRANCH  22  23
ATOM     23  C   LYS     4      62.571  43.221  50.391  1.00  0.00     0.251 C 
ATOM     24  N   LEU     5      63.342  43.162  49.309  1.00  0.00    -0.338 N 
ATOM     25  H   LEU     5      63.680  42.284  48.973  1.00 99.99     0.164 HD
ATOM     26  O   LYS     4      62.483  44.228  51.090  1.00  0.00    -0.271 OA
BRANCH  24  27
ATOM     27  CA  LEU     5      63.914  44.332  48.606  1.00  0.00     0.159 C 
BRANCH  27  28
ATOM     28  CB  LEU     5      65.231  44.739  49.279  1.00  0.00     0.032 C 
BRANCH  28  29
ATOM     29  CG  LEU     5      65.245  46.163  49.847  1.00  0.00     0.002 C 
ATOM     30  CD2 LEU     5      64.019  46.959  49.389  1.00  0.00     0.000 C 
ATOM     31  CD1 LEU     5      66.517  46.873  49.383  1.00  0.00     0.000 C 
ENDBRANCH  28  29
ENDBRANCH  27  28
BRANCH  27  32
ATOM     32  C   LEU     5      64.193  44.047  47.119  1.00  0.00     0.251 C 
ATOM     33  O   LEU     5      65.169  44.541  46.560  1.00  0.00    -0.271 OA
ATOM     34  N   LYS     6      63.441  43.089  46.573  1.00  0.00    -0.338 N 
ATOM     35  H   LYS     6      62.918  42.464  47.150  1.00 99.99     0.164 HD
BRANCH  34  36
ATOM     36  CA  LYS     6      63.483  42.708  45.147  1.00  0.00     0.159 C 
BRANCH  36  37
ATOM     37  C   LYS     6      62.152  42.108  44.629  1.00  0.00     0.251 C 
ATOM     38  O   LYS     6      61.670  41.095  45.131  1.00  0.00    -0.271 OA
ATOM     39  N   LYS     7      61.512  42.815  43.700  1.00  0.00    -0.336 N 
ATOM     40  H   LYS     7      61.879  43.682  43.371  1.00 99.99     0.164 HD
BRANCH  39  41
ATOM     41  CA  LYS     7      60.319  42.341  42.964  1.00  0.00     0.168 C 
BRANCH  41  42
ATOM     42  CB  LYS     7      59.028  42.958  43.506  1.00  0.00     0.033 C 
BRANCH  42  43
ATOM     43  CG  LYS     7      57.837  42.053  43.808  1.00  0.00     0.004 C 
BRANCH  43  44
ATOM     44  CD  LYS     7      58.440  40.649  43.839  1.00  0.00     0.032 C 
BRANCH  44  45
ATOM     45  CE  LYS     7      58.189  39.862  45.122  1.00  0.00     0.206 C 
BRANCH  45  46
ATOM     46  NZ  LYS     7      59.424  39.137  45.453  1.00  0.00    -0.064 N 
ATOM     47  HZ1 LYS     7      59.389  38.818  46.400  1.00 99.99     0.275 HD
ATOM     48  HZ2 LYS     7      59.522  38.357  44.835  1.00 99.99     0.275 HD
ATOM     49  HZ3 LYS     7      60.205  39.750  45.333  1.00 99.99     0.275 HD
ENDBRANCH  45  46
ENDBRANCH  44  45
ENDBRANCH  43  44
ENDBRANCH  42  43
ENDBRANCH  41  42
BRANCH  41  50
ATOM     50  C   LYS     7      60.409  42.859  41.522  1.00  0.00     0.206 C 
ATOM     51  OXT LYS     7      59.891  43.986  41.343  1.00 99.99    -0.646 OA
ATOM     52  O   LYS     7      60.978  42.151  40.663  1.00 99.99    -0.646 OA
ENDBRANCH  41  50
ENDBRANCH  39  41
ENDBRANCH  36  37
BRANCH  36  53
ATOM     53  CB  LYS     6      64.640  41.724  44.949  1.00  0.00     0.032 C 
BRANCH  53  54
ATOM     54  CG  LYS     6      64.617  41.177  43.521  1.00  0.00     0.004 C 
BRANCH  54  55
ATOM     55  CD  LYS     6      65.366  42.068  42.535  1.00  0.00     0.032 C 
BRANCH  55  56
ATOM     56  CE  LYS     6      65.297  41.418  41.154  1.00  0.00     0.206 C 
BRANCH  56  57
ATOM     57  NZ  LYS     6      63.915  41.326  40.665  1.00  0.00    -0.064 N 
ATOM     58  HZ3 LYS     6      63.685  40.369  40.494  1.00 99.99     0.275 HD
ATOM     59  HZ2 LYS     6      63.831  41.855  39.822  1.00 99.99     0.275 HD
ATOM     60  HZ1 LYS     6      63.299  41.698  41.359  1.00 99.99     0.275 HD
ENDBRANCH  56  57
ENDBRANCH  55  56
ENDBRANCH  54  55
ENDBRANCH  53  54
ENDBRANCH  36  53
ENDBRANCH  34  36
ENDBRANCH  27  32
ENDBRANCH  24  27
ENDBRANCH  22  23
BRANCH  22  61
ATOM     61  CB  LYS     4      62.137  40.872  49.715  1.00  0.00     0.032 C 
BRANCH  61  62
ATOM     62  CG  LYS     4      62.867  39.576  50.062  1.00  0.00     0.004 C 
BRANCH  62  63
ATOM     63  CD  LYS     4      63.365  39.692  51.504  1.00  0.00     0.032 C 
BRANCH  63  64
ATOM     64  CE  LYS     4      62.646  38.728  52.447  1.00  0.00     0.206 C 
BRANCH  64  65
ATOM     65  NZ  LYS     4      62.516  39.323  53.786  1.00  0.00    -0.064 N 
ATOM     66  HZ3 LYS     4      61.546  39.416  54.015  1.00 99.99     0.275 HD
ATOM     67  HZ2 LYS     4      62.947  40.224  53.800  1.00 99.99     0.275 HD
ATOM     68  HZ1 LYS     4      62.958  38.729  54.459  1.00 99.99     0.275 HD
ENDBRANCH  64  65
ENDBRANCH  63  64
ENDBRANCH  62  63
ENDBRANCH  61  62
ENDBRANCH  22  61
ENDBRANCH  20  22
ENDBRANCH  16  18
ENDBRANCH  13  16
ENDBRANCH  11  12
BRANCH  11  69
ATOM     69  CB  PHE     2      55.857  42.946  49.075  1.00  0.00     0.056 C 
BRANCH  69  70
ATOM     70  CG  PHE     2      57.169  43.049  48.292  1.00  0.00    -0.044 A 
ATOM     71  CD2 PHE     2      58.109  42.029  48.396  1.00  0.00     0.008 A 
ATOM     72  CE2 PHE     2      59.326  42.139  47.736  1.00  0.00     0.001 A 
ATOM     73  CZ  PHE     2      59.610  43.269  46.981  1.00  0.00     0.000 A 
ATOM     74  CE1 PHE     2      58.671  44.288  46.879  1.00  0.00     0.001 A 
ATOM     75  CD1 PHE     2      57.453  44.182  47.537  1.00  0.00     0.008 A 
ENDBRANCH  69  70
ENDBRANCH  11  69
ENDBRANCH   9  11
ENDBRANCH   5   7
ENDBRANCH   1   5
TORSDOF 33
ENDMDL
MODEL 4
REMARK VINA RESULT:      -5.2      3.024      9.486
REMARK WARNING: 32 MAX_TORS EXCEEDED!!!
REMARK  33 active torsions:
REMARK  status: ('A' for Active; 'I' for Inactive)
REMARK    1  A    between atoms: N_1  and  CA_2 
REMARK    2  A    between atoms: CA_2  and  C_3 
REMARK       I    between atoms: C_3  and  N_9 
REMARK    3  A    between atoms: N_9  and  CA_10 
REMARK    4  A    between atoms: CA_10  and  C_11 
REMARK    5  A    between atoms: CA_10  and  CB_13 
REMARK       I    between atoms: C_11  and  N_21 
REMARK    6  A    between atoms: CB_13  and  CG_14 
REMARK    7  A    between atoms: N_21  and  CA_22 
REMARK    8  A    between atoms: CA_22  and  C_23 
REMARK       I    between atoms: C_23  and  N_27 
REMARK    9  A    between atoms: N_27  and  CA_28 
REMARK   10  A    between atoms: CA_28  and  C_29 
REMARK   11  A    between atoms: CA_28  and  CB_31 
REMARK       I    between atoms: C_29  and  N_40 
REMARK   12  A    between atoms: CB_31  and  CG_32 
REMARK   13  A    between atoms: CG_32  and  CD_33 
REMARK   14  A    between atoms: CD_33  and  CE_34 
REMARK   15  A    between atoms: CE_34  and  NZ_35 
REMARK   16  A    between atoms: N_40  and  CA_41 
REMARK   17  A    between atoms: CA_41  and  CB_44 
REMARK   18  A    between atoms: CA_41  and  C_42 
REMARK       I    between atoms: C_42  and  N_49 
REMARK   19  A    between atoms: CB_44  and  CG_45 
REMARK   20  A    between atoms: N_49  and  CA_50 
REMARK   21  A    between atoms: CA_50  and  C_51 
REMARK   22  A    between atoms: CA_50  and  CB_53 
REMARK       I    between atoms: C_51  and  N_62 
REMARK   23  A    between atoms: CB_53  and  CG_54 
REMARK   24  A    between atoms: CG_54  and  CD_55 
REMARK   25  A    between atoms: CD_55  and  CE_56 
REMARK   26  A    between atoms: CE_56  and  NZ_57 
REMARK   27  A    between atoms: N_62  and  CA_63 
REMARK   28  A    between atoms: CA_63  and  CB_66 
REMARK   29  A    between atoms: CA_63  and  C_64 
REMARK   30  A    between atoms: CB_66  and  CG_67 
REMARK   31  A    between atoms: CG_67  and  CD_68 
REMARK   32  A    between atoms: CD_68  and  CE_69 
REMARK   33  A    between atoms: CE_69  and  NZ_70 
ROOT
ATOM      1  N   ALA     1      65.125  40.566  54.322  1.00  0.00    -0.058 N 
ATOM      2  H1  ALA     1      65.497  39.672  54.574  1.00 99.99     0.276 HD
ATOM      3  H2  ALA     1      65.165  40.663  53.328  1.00 99.99     0.276 HD
ATOM      4  H3  ALA     1      65.715  41.297  54.655  1.00 99.99     0.276 HD
ENDROOT
BRANCH   1   5
ATOM      5  CA  ALA     1      63.733  40.724  54.824  1.00  0.00     0.255 C 
ATOM      6  CB  ALA     1      63.797  41.495  56.151  1.00  0.00     0.042 C 
BRANCH   5   7
ATOM      7  C   ALA     1      62.676  41.362  53.874  1.00  0.00     0.259 C 
ATOM      8  O   ALA     1      61.525  41.572  54.263  1.00  0.00    -0.271 OA
ATOM      9  N   PHE     2      62.963  41.380  52.567  1.00  0.00    -0.337 N 
ATOM     10  H   PHE     2      63.701  40.823  52.188  1.00 99.99     0.164 HD
BRANCH   9  11
ATOM     11  CA  PHE     2      62.207  42.160  51.554  1.00  0.00     0.164 C 
BRANCH  11  12
ATOM     12  C   PHE     2      60.838  41.580  51.122  1.00  0.00     0.251 C 
ATOM     13  N   ALA     3      59.769  42.034  51.778  1.00  0.00    -0.338 N 
ATOM     14  H   ALA     3      59.869  42.615  52.582  1.00 99.99     0.164 HD
ATOM     15  O   PHE     2      60.752  40.915  50.091  1.00  0.00    -0.271 OA
BRANCH  13  16
ATOM     16  CA  ALA     3      58.368  41.650  51.484  1.00  0.00     0.159 C 
ATOM     17  CB  ALA     3      57.556  41.753  52.778  1.00  0.00     0.034 C 
BRANCH  16  18
ATOM     18  C   ALA     3      57.651  42.423  50.353  1.00  0.00     0.251 C 
ATOM     19  O   ALA     3      56.650  43.088  50.607  1.00  0.00    -0.271 OA
ATOM     20  N   LYS     4      58.186  42.357  49.134  1.00  0.00    -0.338 N 
ATOM     21  H   LYS     4      59.049  41.878  48.966  1.00 99.99     0.164 HD
BRANCH  20  22
ATOM     22  CA  LYS     4      57.603  42.968  47.914  1.00  0.00     0.159 C 
BRANCH  22  23
ATOM     23  C   LYS     4      56.935  41.970  46.942  1.00  0.00     0.251 C 
ATOM     24  N   LEU     5      57.489  41.894  45.735  1.00  0.00    -0.338 N 
ATOM     25  H   LEU     5      58.149  42.581  45.434  1.00 99.99     0.164 HD
ATOM     26  O   LYS     4      55.851  41.455  47.209  1.00  0.00    -0.271 OA
BRANCH  24  27
ATOM     27  CA  LEU     5      57.092  40.941  44.675  1.00  0.00     0.159 C 
BRANCH  27  28
ATOM     28  CB  LEU     5      57.832  41.285  43.376  1.00  0.00     0.032 C 
BRANCH  28  29
ATOM     29  CG  LEU     5      59.292  41.714  43.567  1.00  0.00     0.002 C 
ATOM     30  CD2 LEU     5      59.518  43.153  43.092  1.00  0.00     0.000 C 
ATOM     31  CD1 LEU     5      60.198  40.768  42.779  1.00  0.00     0.000 C 
ENDBRANCH  28  29
ENDBRANCH  27  28
BRANCH  27  32
ATOM     32  C   LEU     5      57.411  39.480  45.047  1.00  0.00     0.251 C 
ATOM     33  O   LEU     5      57.420  38.604  44.186  1.00  0.00    -0.271 OA
ATOM     34  N   LYS     6      57.865  39.296  46.287  1.00  0.00    -0.338 N 
ATOM     35  H   LYS     6      58.188  40.070  46.830  1.00 99.99     0.164 HD
BRANCH  34  36
ATOM     36  CA  LYS     6      58.157  37.975  46.881  1.00  0.00     0.159 C 
BRANCH  36  37
ATOM     37  C   LYS     6      56.934  37.330  47.580  1.00  0.00     0.251 C 
ATOM     38  O   LYS     6      56.939  36.146  47.911  1.00  0.00    -0.271 OA
ATOM     39  N   LYS     7      55.940  38.153  47.903  1.00  0.00    -0.336 N 
ATOM     40  H   LYS     7      55.997  39.130  47.704  1.00 99.99     0.164 HD
BRANCH  39  41
ATOM     41  CA  LYS     7      54.627  37.714  48.424  1.00  0.00     0.168 C 
BRANCH  41  42
ATOM     42  CB  LYS     7      54.293  38.371  49.766  1.00  0.00     0.033 C 
BRANCH  42  43
ATOM     43  CG  LYS     7      55.315  39.295  50.420  1.00  0.00     0.004 C 
BRANCH  43  44
ATOM     44  CD  LYS     7      54.480  40.473  50.919  1.00  0.00     0.032 C 
BRANCH  44  45
ATOM     45  CE  LYS     7      53.561  41.106  49.879  1.00  0.00     0.206 C 
BRANCH  45  46
ATOM     46  NZ  LYS     7      54.068  42.455  49.593  1.00  0.00    -0.064 N 
ATOM     47  HZ1 LYS     7      54.197  42.570  48.609  1.00 99.99     0.275 HD
ATOM     48  HZ2 LYS     7      53.412  43.130  49.931  1.00 99.99     0.275 HD
ATOM     49  HZ3 LYS     7      54.941  42.583  50.064  1.00 99.99     0.275 HD
ENDBRANCH  45  46
ENDBRANCH  44  45
ENDBRANCH  43  44
ENDBRANCH  42  43
ENDBRANCH  41  42
BRANCH  41  50
ATOM     50  C   LYS     7      53.538  38.228  47.472  1.00  0.00     0.206 C 
ATOM     51  OXT LYS     7      53.971  38.846  46.473  1.00 99.99    -0.646 OA
ATOM     52  O   LYS     7      52.340  37.996  47.747  1.00 99.99    -0.646 OA
ENDBRANCH  41  50
ENDBRANCH  39  41
ENDBRANCH  36  37
BRANCH  36  53
ATOM     53  CB  LYS     6      59.324  38.138  47.858  1.00  0.00     0.032 C 
BRANCH  53  54
ATOM     54  CG  LYS     6      60.620  37.657  47.202  1.00  0.00     0.004 C 
BRANCH  54  55
ATOM     55  CD  LYS     6      60.371  36.792  45.971  1.00  0.00     0.032 C 
BRANCH  55  56
ATOM     56  CE  LYS     6      60.844  37.564  44.740  1.00  0.00     0.206 C 
BRANCH  56  57
ATOM     57  NZ  LYS     6      60.102  37.172  43.534  1.00  0.00    -0.064 N 
ATOM     58  HZ3 LYS     6      59.377  37.837  43.359  1.00 99.99     0.275 HD
ATOM     59  HZ2 LYS     6      59.708  36.265  43.672  1.00 99.99     0.275 HD
ATOM     60  HZ1 LYS     6      60.731  37.153  42.757  1.00 99.99     0.275 HD
ENDBRANCH  56  57
ENDBRANCH  55  56
ENDBRANCH  54  55
ENDBRANCH  53  54
ENDBRANCH  36  53
ENDBRANCH  34  36
ENDBRANCH  27  32
ENDBRANCH  24  27
ENDBRANCH  22  23
BRANCH  22  61
ATOM     61  CB  LYS     4      58.692  43.713  47.137  1.00  0.00     0.032 C 
BRANCH  61  62
ATOM     62  CG  LYS     4      60.062  43.741  47.810  1.00  0.00     0.004 C 
BRANCH  62  63
ATOM     63  CD  LYS     4      61.061  43.072  46.863  1.00  0.00     0.032 C 
BRANCH  63  64
ATOM     64  CE  LYS     4      60.899  41.553  46.823  1.00  0.00     0.206 C 
BRANCH  64  65
ATOM     65  NZ  LYS     4      62.123  40.894  47.301  1.00  0.00    -0.064 N 
ATOM     66  HZ3 LYS     4      61.881  40.051  47.782  1.00 99.99     0.275 HD
ATOM     67  HZ2 LYS     4      62.614  41.501  47.925  1.00 99.99     0.275 HD
ATOM     68  HZ1 LYS     4      62.708  40.671  46.520  1.00 99.99     0.275 HD
ENDBRANCH  64  65
ENDBRANCH  63  64
ENDBRANCH  62  63
ENDBRANCH  61  62
ENDBRANCH  22  61
ENDBRANCH  20  22
ENDBRANCH  16  18
ENDBRANCH  13  16
ENDBRANCH  11  12
BRANCH  11  69
ATOM     69  CB  PHE     2      63.141  42.411  50.362  1.00  0.00     0.056 C 
BRANCH  69  70
ATOM     70  CG  PHE     2      63.320  43.890  50.011  1.00  0.00    -0.044 A 
ATOM     71  CD2 PHE     2      64.172  44.249  48.971  1.00  0.00     0.008 A 
ATOM     72  CE2 PHE     2      64.386  45.590  48.681  1.00  0.00     0.001 A 
ATOM     73  CZ  PHE     2      63.759  46.574  49.434  1.00  0.00     0.000 A 
ATOM     74  CE1 PHE     2      62.910  46.215  50.475  1.00  0.00     0.001 A 
ATOM     75  CD1 PHE     2      62.693  44.875  50.766  1.00  0.00     0.008 A 
ENDBRANCH  69  70
ENDBRANCH  11  69
ENDBRANCH   9  11
ENDBRANCH   5   7
ENDBRANCH   1   5
TORSDOF 33
ENDMDL
MODEL 5
REMARK VINA RESULT:      -5.1      2.346      5.885
REMARK WARNING: 32 MAX_TORS EXCEEDED!!!
REMARK  33 active torsions:
REMARK  status: ('A' for Active; 'I' for Inactive)
REMARK    1  A    between atoms: N_1  and  CA_2 
REMARK    2  A    between atoms: CA_2  and  C_3 
REMARK       I    between atoms: C_3  and  N_9 
REMARK    3  A    between atoms: N_9  and  CA_10 
REMARK    4  A    between atoms: CA_10  and  C_11 
REMARK    5  A    between atoms: CA_10  and  CB_13 
REMARK       I    between atoms: C_11  and  N_21 
REMARK    6  A    between atoms: CB_13  and  CG_14 
REMARK    7  A    between atoms: N_21  and  CA_22 
REMARK    8  A    between atoms: CA_22  and  C_23 
REMARK       I    between atoms: C_23  and  N_27 
REMARK    9  A    between atoms: N_27  and  CA_28 
REMARK   10  A    between atoms: CA_28  and  C_29 
REMARK   11  A    between atoms: CA_28  and  CB_31 
REMARK       I    between atoms: C_29  and  N_40 
REMARK   12  A    between atoms: CB_31  and  CG_32 
REMARK   13  A    between atoms: CG_32  and  CD_33 
REMARK   14  A    between atoms: CD_33  and  CE_34 
REMARK   15  A    between atoms: CE_34  and  NZ_35 
REMARK   16  A    between atoms: N_40  and  CA_41 
REMARK   17  A    between atoms: CA_41  and  CB_44 
REMARK   18  A    between atoms: CA_41  and  C_42 
REMARK       I    between atoms: C_42  and  N_49 
REMARK   19  A    between atoms: CB_44  and  CG_45 
REMARK   20  A    between atoms: N_49  and  CA_50 
REMARK   21  A    between atoms: CA_50  and  C_51 
REMARK   22  A    between atoms: CA_50  and  CB_53 
REMARK       I    between atoms: C_51  and  N_62 
REMARK   23  A    between atoms: CB_53  and  CG_54 
REMARK   24  A    between atoms: CG_54  and  CD_55 
REMARK   25  A    between atoms: CD_55  and  CE_56 
REMARK   26  A    between atoms: CE_56  and  NZ_57 
REMARK   27  A    between atoms: N_62  and  CA_63 
REMARK   28  A    between atoms: CA_63  and  CB_66 
REMARK   29  A    between atoms: CA_63  and  C_64 
REMARK   30  A    between atoms: CB_66  and  CG_67 
REMARK   31  A    between atoms: CG_67  and  CD_68 
REMARK   32  A    between atoms: CD_68  and  CE_69 
REMARK   33  A    between atoms: CE_69  and  NZ_70 
ROOT
ATOM      1  N   ALA     1      58.955  43.374  46.517  1.00  0.00    -0.058 N 
ATOM      2  H1  ALA     1      59.157  43.927  45.710  1.00 99.99     0.276 HD
ATOM      3  H2  ALA     1      59.249  43.872  47.332  1.00 99.99     0.276 HD
ATOM      4  H3  ALA     1      59.517  42.550  46.529  1.00 99.99     0.276 HD
ENDROOT
BRANCH   1   5
ATOM      5  CA  ALA     1      57.507  43.039  46.585  1.00  0.00     0.255 C 
ATOM      6  CB  ALA     1      57.370  41.516  46.439  1.00  0.00     0.042 C 
BRANCH   5   7
ATOM      7  C   ALA     1      56.690  43.543  47.812  1.00  0.00     0.259 C 
ATOM      8  O   ALA     1      56.713  44.732  48.139  1.00  0.00    -0.271 OA
ATOM      9  N   PHE     2      56.232  42.616  48.661  1.00  0.00    -0.337 N 
ATOM     10  H   PHE     2      56.574  41.678  48.643  1.00 99.99     0.164 HD
BRANCH   9  11
ATOM     11  CA  PHE     2      55.235  42.880  49.731  1.00  0.00     0.164 C 
BRANCH  11  12
ATOM     12  C   PHE     2      55.791  43.009  51.170  1.00  0.00     0.251 C 
ATOM     13  N   ALA     3      56.762  42.159  51.509  1.00  0.00    -0.338 N 
ATOM     14  H   ALA     3      57.017  41.405  50.907  1.00 99.99     0.164 HD
ATOM     15  O   PHE     2      55.494  43.986  51.857  1.00  0.00    -0.271 OA
BRANCH  13  16
ATOM     16  CA  ALA     3      57.465  42.151  52.814  1.00  0.00     0.159 C 
ATOM     17  CB  ALA     3      56.996  40.931  53.609  1.00  0.00     0.034 C 
BRANCH  16  18
ATOM     18  C   ALA     3      59.010  42.191  52.778  1.00  0.00     0.251 C 
ATOM     19  O   ALA     3      59.601  43.239  53.028  1.00  0.00    -0.271 OA
ATOM     20  N   LYS     4      59.645  41.050  52.506  1.00  0.00    -0.338 N 
ATOM     21  H   LYS     4      59.146  40.190  52.387  1.00 99.99     0.164 HD
BRANCH  20  22
ATOM     22  CA  LYS     4      61.113  40.908  52.356  1.00  0.00     0.159 C 
BRANCH  22  23
ATOM     23  C   LYS     4      61.563  39.916  51.259  1.00  0.00     0.251 C 
ATOM     24  N   LEU     5      60.889  39.988  50.115  1.00  0.00    -0.338 N 
ATOM     25  H   LEU     5      60.033  40.502  50.061  1.00 99.99     0.164 HD
ATOM     26  O   LYS     4      62.339  38.998  51.517  1.00  0.00    -0.271 OA
BRANCH  24  27
ATOM     27  CA  LEU     5      61.203  39.217  48.892  1.00  0.00     0.159 C 
BRANCH  27  28
ATOM     28  CB  LEU     5      59.931  39.057  48.049  1.00  0.00     0.032 C 
BRANCH  28  29
ATOM     29  CG  LEU     5      59.649  37.623  47.585  1.00  0.00     0.002 C 
ATOM     30  CD2 LEU     5      58.684  37.601  46.394  1.00  0.00     0.000 C 
ATOM     31  CD1 LEU     5      59.045  36.832  48.746  1.00  0.00     0.000 C 
ENDBRANCH  28  29
ENDBRANCH  27  28
BRANCH  27  32
ATOM     32  C   LEU     5      62.280  39.898  48.027  1.00  0.00     0.251 C 
ATOM     33  O   LEU     5      63.446  39.951  48.409  1.00  0.00    -0.271 OA
ATOM     34  N   LYS     6      61.896  40.218  46.790  1.00  0.00    -0.338 N 
ATOM     35  H   LYS     6      61.063  39.830  46.400  1.00 99.99     0.164 HD
BRANCH  34  36
ATOM     36  CA  LYS     6      62.737  40.947  45.819  1.00  0.00     0.159 C 
BRANCH  36  37
ATOM     37  C   LYS     6      63.053  42.402  46.246  1.00  0.00     0.251 C 
ATOM     38  O   LYS     6      62.203  43.287  46.175  1.00  0.00    -0.271 OA
ATOM     39  N   LYS     7      64.246  42.606  46.799  1.00  0.00    -0.336 N 
ATOM     40  H   LYS     7      64.887  41.853  46.929  1.00 99.99     0.164 HD
BRANCH  39  41
ATOM     41  CA  LYS     7      64.800  43.940  47.123  1.00  0.00     0.168 C 
BRANCH  41  42
ATOM     42  CB  LYS     7      64.949  44.148  48.632  1.00  0.00     0.033 C 
BRANCH  42  43
ATOM     43  CG  LYS     7      63.762  43.859  49.546  1.00  0.00     0.004 C 
BRANCH  43  44
ATOM     44  CD  LYS     7      62.877  45.097  49.402  1.00  0.00     0.032 C 
BRANCH  44  45
ATOM     45  CE  LYS     7      63.305  46.303  50.232  1.00  0.00     0.206 C 
BRANCH  45  46
ATOM     46  NZ  LYS     7      63.714  47.366  49.303  1.00  0.00    -0.064 N 
ATOM     47  HZ1 LYS     7      64.493  47.867  49.679  1.00 99.99     0.275 HD
ATOM     48  HZ2 LYS     7      63.964  46.957  48.426  1.00 99.99     0.275 HD
ATOM     49  HZ3 LYS     7      62.946  47.992  49.165  1.00 99.99     0.275 HD
ENDBRANCH  45  46
ENDBRANCH  44  45
ENDBRANCH  43  44
ENDBRANCH  42  43
ENDBRANCH  41  42
BRANCH  41  50
ATOM     50  C   LYS     7      66.239  44.002  46.591  1.00  0.00     0.206 C 
ATOM     51  OXT LYS     7      66.768  42.885  46.393  1.00 99.99    -0.646 OA
ATOM     52  O   LYS     7      66.758  45.123  46.392  1.00 99.99    -0.646 OA
ENDBRANCH  41  50
ENDBRANCH  39  41
ENDBRANCH  36  37
BRANCH  36  53
ATOM     53  CB  LYS     6      62.033  40.916  44.459  1.00  0.00     0.032 C 
BRANCH  53  54
ATOM     54  CG  LYS     6      60.553  40.584  44.650  1.00  0.00     0.004 C 
BRANCH  54  55
ATOM     55  CD  LYS     6      59.674  41.140  43.534  1.00  0.00     0.032 C 
BRANCH  55  56
ATOM     56  CE  LYS     6      60.045  42.606  43.319  1.00  0.00     0.206 C 
BRANCH  56  57
ATOM     57  NZ  LYS     6      58.874  43.416  42.957  1.00  0.00    -0.064 N 
ATOM     58  HZ3 LYS     6      59.166  44.346  42.742  1.00 99.99     0.275 HD
ATOM     59  HZ2 LYS     6      58.233  43.426  43.723  1.00 99.99     0.275 HD
ATOM     60  HZ1 LYS     6      58.434  43.010  42.156  1.00 99.99     0.275 HD
ENDBRANCH  56  57
ENDBRANCH  55  56
ENDBRANCH  54  55
ENDBRANCH  53  54
ENDBRANCH  36  53
ENDBRANCH  34  36
ENDBRANCH  27  32
ENDBRANCH  24  27
ENDBRANCH  22  23
BRANCH  22  61
ATOM     61  CB  LYS     4      61.727  40.443  53.679  1.00  0.00     0.032 C 
BRANCH  61  62
ATOM     62  CG  LYS     4      62.955  41.227  54.133  1.00  0.00     0.004 C 
BRANCH  62  63
ATOM     63  CD  LYS     4      62.923  41.304  55.661  1.00  0.00     0.032 C 
BRANCH  63  64
ATOM     64  CE  LYS     4      62.224  40.099  56.290  1.00  0.00     0.206 C 
BRANCH  64  65
ATOM     65  NZ  LYS     4      61.449  40.514  57.468  1.00  0.00    -0.064 N 
ATOM     66  HZ3 LYS     4      61.439  39.771  58.138  1.00 99.99     0.275 HD
ATOM     67  HZ2 LYS     4      60.511  40.728  57.199  1.00 99.99     0.275 HD
ATOM     68  HZ1 LYS     4      61.873  41.322  57.879  1.00 99.99     0.275 HD
ENDBRANCH  64  65
ENDBRANCH  63  64
ENDBRANCH  62  63
ENDBRANCH  61  62
ENDBRANCH  22  61
ENDBRANCH  20  22
ENDBRANCH  16  18
ENDBRANCH  13  16
ENDBRANCH  11  12
BRANCH  11  69
ATOM     69  CB  PHE     2      54.134  41.816  49.620  1.00  0.00     0.056 C 
BRANCH  69  70
ATOM     70  CG  PHE     2      54.564  40.551  48.871  1.00  0.00    -0.044 A 
ATOM     71  CD2 PHE     2      54.019  40.276  47.622  1.00  0.00     0.008 A 
ATOM     72  CE2 PHE     2      54.357  39.103  46.960  1.00  0.00     0.001 A 
ATOM     73  CZ  PHE     2      55.232  38.199  47.548  1.00  0.00     0.000 A 
ATOM     74  CE1 PHE     2      55.775  38.473  48.798  1.00  0.00     0.001 A 
ATOM     75  CD1 PHE     2      55.439  39.645  49.462  1.00  0.00     0.008 A 
ENDBRANCH  69  70
ENDBRANCH  11  69
ENDBRANCH   9  11
ENDBRANCH   5   7
ENDBRANCH   1   5
TORSDOF 33
ENDMDL
MODEL 6
REMARK VINA RESULT:      -5.1      2.289      9.982
REMARK WARNING: 32 MAX_TORS EXCEEDED!!!
REMARK  33 active torsions:
REMARK  status: ('A' for Active; 'I' for Inactive)
REMARK    1  A    between atoms: N_1  and  CA_2 
REMARK    2  A    between atoms: CA_2  and  C_3 
REMARK       I    between atoms: C_3  and  N_9 
REMARK    3  A    between atoms: N_9  and  CA_10 
REMARK    4  A    between atoms: CA_10  and  C_11 
REMARK    5  A    between atoms: CA_10  and  CB_13 
REMARK       I    between atoms: C_11  and  N_21 
REMARK    6  A    between atoms: CB_13  and  CG_14 
REMARK    7  A    between atoms: N_21  and  CA_22 
REMARK    8  A    between atoms: CA_22  and  C_23 
REMARK       I    between atoms: C_23  and  N_27 
REMARK    9  A    between atoms: N_27  and  CA_28 
REMARK   10  A    between atoms: CA_28  and  C_29 
REMARK   11  A    between atoms: CA_28  and  CB_31 
REMARK       I    between atoms: C_29  and  N_40 
REMARK   12  A    between atoms: CB_31  and  CG_32 
REMARK   13  A    between atoms: CG_32  and  CD_33 
REMARK   14  A    between atoms: CD_33  and  CE_34 
REMARK   15  A    between atoms: CE_34  and  NZ_35 
REMARK   16  A    between atoms: N_40  and  CA_41 
REMARK   17  A    between atoms: CA_41  and  CB_44 
REMARK   18  A    between atoms: CA_41  and  C_42 
REMARK       I    between atoms: C_42  and  N_49 
REMARK   19  A    between atoms: CB_44  and  CG_45 
REMARK   20  A    between atoms: N_49  and  CA_50 
REMARK   21  A    between atoms: CA_50  and  C_51 
REMARK   22  A    between atoms: CA_50  and  CB_53 
REMARK       I    between atoms: C_51  and  N_62 
REMARK   23  A    between atoms: CB_53  and  CG_54 
REMARK   24  A    between atoms: CG_54  and  CD_55 
REMARK   25  A    between atoms: CD_55  and  CE_56 
REMARK   26  A    between atoms: CE_56  and  NZ_57 
REMARK   27  A    between atoms: N_62  and  CA_63 
REMARK   28  A    between atoms: CA_63  and  CB_66 
REMARK   29  A    between atoms: CA_63  and  C_64 
REMARK   30  A    between atoms: CB_66  and  CG_67 
REMARK   31  A    between atoms: CG_67  and  CD_68 
REMARK   32  A    between atoms: CD_68  and  CE_69 
REMARK   33  A    between atoms: CE_69  and  NZ_70 
ROOT
ATOM      1  N   ALA     1      55.602  43.856  48.751  1.00  0.00    -0.058 N 
ATOM      2  H1  ALA     1      56.467  44.340  48.878  1.00 99.99     0.276 HD
ATOM      3  H2  ALA     1      55.737  43.124  48.083  1.00 99.99     0.276 HD
ATOM      4  H3  ALA     1      54.928  44.449  48.317  1.00 99.99     0.276 HD
ENDROOT
BRANCH   1   5
ATOM      5  CA  ALA     1      55.097  43.319  50.043  1.00  0.00     0.255 C 
ATOM      6  CB  ALA     1      54.372  41.997  49.751  1.00  0.00     0.042 C 
BRANCH   5   7
ATOM      7  C   ALA     1      56.110  43.138  51.212  1.00  0.00     0.259 C 
ATOM      8  O   ALA     1      55.988  43.780  52.257  1.00  0.00    -0.271 OA
ATOM      9  N   PHE     2      57.261  42.517  50.930  1.00  0.00    -0.337 N 
ATOM     10  H   PHE     2      57.558  42.374  49.987  1.00 99.99     0.164 HD
BRANCH   9  11
ATOM     11  CA  PHE     2      58.225  42.034  51.952  1.00  0.00     0.164 C 
BRANCH  11  12
ATOM     12  C   PHE     2      59.725  42.153  51.590  1.00  0.00     0.251 C 
ATOM     13  N   ALA     3      60.540  42.557  52.566  1.00  0.00    -0.338 N 
ATOM     14  H   ALA     3      60.176  42.884  53.436  1.00 99.99     0.164 HD
ATOM     15  O   PHE     2      60.140  41.684  50.531  1.00  0.00    -0.271 OA
BRANCH  13  16
ATOM     16  CA  ALA     3      62.012  42.684  52.445  1.00  0.00     0.159 C 
ATOM     17  CB  ALA     3      62.608  41.281  52.307  1.00  0.00     0.034 C 
BRANCH  16  18
ATOM     18  C   ALA     3      62.547  43.595  51.316  1.00  0.00     0.251 C 
ATOM     19  O   ALA     3      62.568  44.813  51.472  1.00  0.00    -0.271 OA
ATOM     20  N   LYS     4      63.005  42.998  50.215  1.00  0.00    -0.338 N 
ATOM     21  H   LYS     4      63.056  42.000  50.143  1.00 99.99     0.164 HD
BRANCH  20  22
ATOM     22  CA  LYS     4      63.487  43.704  49.003  1.00  0.00     0.159 C 
BRANCH  22  23
ATOM     23  C   LYS     4      62.676  43.419  47.719  1.00  0.00     0.251 C 
ATOM     24  N   LEU     5      61.500  42.829  47.906  1.00  0.00    -0.338 N 
ATOM     25  H   LEU     5      61.270  42.424  48.791  1.00 99.99     0.164 HD
ATOM     26  O   LYS     4      63.188  43.542  46.607  1.00  0.00    -0.271 OA
BRANCH  24  27
ATOM     27  CA  LEU     5      60.506  42.552  46.845  1.00  0.00     0.159 C 
BRANCH  27  28
ATOM     28  CB  LEU     5      60.892  41.263  46.108  1.00  0.00     0.032 C 
BRANCH  28  29
ATOM     29  CG  LEU     5      61.046  41.417  44.591  1.00  0.00     0.002 C 
ATOM     30  CD2 LEU     5      62.483  41.127  44.144  1.00  0.00     0.000 C 
ATOM     31  CD1 LEU     5      60.665  42.843  44.192  1.00  0.00     0.000 C 
ENDBRANCH  28  29
ENDBRANCH  27  28
BRANCH  27  32
ATOM     32  C   LEU     5      59.079  42.388  47.403  1.00  0.00     0.251 C 
ATOM     33  O   LEU     5      58.613  43.218  48.179  1.00  0.00    -0.271 OA
ATOM     34  N   LYS     6      58.352  41.429  46.828  1.00  0.00    -0.338 N 
ATOM     35  H   LYS     6      58.638  41.026  45.960  1.00 99.99     0.164 HD
BRANCH  34  36
ATOM     36  CA  LYS     6      56.991  41.046  47.256  1.00  0.00     0.159 C 
BRANCH  36  37
ATOM     37  C   LYS     6      56.972  39.897  48.295  1.00  0.00     0.251 C 
ATOM     38  O   LYS     6      57.809  39.834  49.194  1.00  0.00    -0.271 OA
ATOM     39  N   LYS     7      55.939  39.060  48.227  1.00  0.00    -0.336 N 
ATOM     40  H   LYS     7      55.223  39.183  47.543  1.00 99.99     0.164 HD
BRANCH  39  41
ATOM     41  CA  LYS     7      55.820  37.813  49.014  1.00  0.00     0.168 C 
BRANCH  41  42
ATOM     42  CB  LYS     7      54.881  37.978  50.211  1.00  0.00     0.033 C 
BRANCH  42  43
ATOM     43  CG  LYS     7      53.459  38.481  49.982  1.00  0.00     0.004 C 
BRANCH  43  44
ATOM     44  CD  LYS     7      52.682  37.947  51.184  1.00  0.00     0.032 C 
BRANCH  44  45
ATOM     45  CE  LYS     7      51.657  38.911  51.776  1.00  0.00     0.206 C 
BRANCH  45  46
ATOM     46  NZ  LYS     7      52.228  39.474  53.007  1.00  0.00    -0.064 N 
ATOM     47  HZ1 LYS     7      52.023  38.877  53.783  1.00 99.99     0.275 HD
ATOM     48  HZ2 LYS     7      53.218  39.563  52.899  1.00 99.99     0.275 HD
ATOM     49  HZ3 LYS     7      51.834  40.379  53.166  1.00 99.99     0.275 HD
ENDBRANCH  45  46
ENDBRANCH  44  45
ENDBRANCH  43  44
ENDBRANCH  42  43
ENDBRANCH  41  42
BRANCH  41  50
ATOM     50  C   LYS     7      55.132  36.757  48.138  1.00  0.00     0.206 C 
ATOM     51  OXT LYS     7      54.862  37.142  46.977  1.00 99.99    -0.646 OA
ATOM     52  O   LYS     7      54.904  35.628  48.624  1.00 99.99    -0.646 OA
ENDBRANCH  41  50
ENDBRANCH  39  41
ENDBRANCH  36  37
BRANCH  36  53
ATOM     53  CB  LYS     6      56.186  40.670  46.009  1.00  0.00     0.032 C 
BRANCH  53  54
ATOM     54  CG  LYS     6      56.995  40.997  44.752  1.00  0.00     0.004 C 
BRANCH  54  55
ATOM     55  CD  LYS     6      57.384  39.752  43.961  1.00  0.00     0.032 C 
BRANCH  55  56
ATOM     56  CE  LYS     6      57.752  40.184  42.542  1.00  0.00     0.206 C 
BRANCH  56  57
ATOM     57  NZ  LYS     6      57.655  41.640  42.374  1.00  0.00    -0.064 N 
ATOM     58  HZ3 LYS     6      58.571  42.028  42.292  1.00 99.99     0.275 HD
ATOM     59  HZ2 LYS     6      57.187  42.030  43.165  1.00 99.99     0.275 HD
ATOM     60  HZ1 LYS     6      57.134  41.837  41.544  1.00 99.99     0.275 HD
ENDBRANCH  56  57
ENDBRANCH  55  56
ENDBRANCH  54  55
ENDBRANCH  53  54
ENDBRANCH  36  53
ENDBRANCH  34  36
ENDBRANCH  27  32
ENDBRANCH  24  27
ENDBRANCH  22  23
BRANCH  22  61
ATOM     61  CB  LYS     4      64.943  43.319  48.725  1.00  0.00     0.032 C 
BRANCH  61  62
ATOM     62  CG  LYS     4      65.913  44.495  48.622  1.00  0.00     0.004 C 
BRANCH  62  63
ATOM     63  CD  LYS     4      65.558  45.491  49.728  1.00  0.00     0.032 C 
BRANCH  63  64
ATOM     64  CE  LYS     4      65.161  46.859  49.174  1.00  0.00     0.206 C 
BRANCH  64  65
ATOM     65  NZ  LYS     4      66.331  47.747  49.116  1.00  0.00    -0.064 N 
ATOM     66  HZ3 LYS     4      66.162  48.557  49.678  1.00 99.99     0.275 HD
ATOM     67  HZ2 LYS     4      66.495  48.030  48.171  1.00 99.99     0.275 HD
ATOM     68  HZ1 LYS     4      67.134  47.265  49.466  1.00 99.99     0.275 HD
ENDBRANCH  64  65
ENDBRANCH  63  64
ENDBRANCH  62  63
ENDBRANCH  61  62
ENDBRANCH  22  61
ENDBRANCH  20  22
ENDBRANCH  16  18
ENDBRANCH  13  16
ENDBRANCH  11  12
BRANCH  11  69
ATOM     69  CB  PHE     2      57.825  40.602  52.334  1.00  0.00     0.056 C 
BRANCH  69  70
ATOM     70  CG  PHE     2      57.141  40.490  53.700  1.00  0.00    -0.044 A 
ATOM     71  CD2 PHE     2      57.918  40.425  54.851  1.00  0.00     0.008 A 
ATOM     72  CE2 PHE     2      57.312  40.265  56.090  1.00  0.00     0.001 A 
ATOM     73  CZ  PHE     2      55.930  40.160  56.180  1.00  0.00     0.000 A 
ATOM     74  CE1 PHE     2      55.153  40.223  55.029  1.00  0.00     0.001 A 
ATOM     75  CD1 PHE     2      55.757  40.383  53.789  1.00  0.00     0.008 A 
ENDBRANCH  69  70
ENDBRANCH  11  69
ENDBRANCH   9  11
ENDBRANCH   5   7
ENDBRANCH   1   5
TORSDOF 33
ENDMDL
MODEL 7
REMARK VINA RESULT:      -5.0      2.170      7.451
REMARK WARNING: 32 MAX_TORS EXCEEDED!!!
REMARK  33 active torsions:
REMARK  status: ('A' for Active; 'I' for Inactive)
REMARK    1  A    between atoms: N_1  and  CA_2 
REMARK    2  A    between atoms: CA_2  and  C_3 
REMARK       I    between atoms: C_3  and  N_9 
REMARK    3  A    between atoms: N_9  and  CA_10 
REMARK    4  A    between atoms: CA_10  and  C_11 
REMARK    5  A    between atoms: CA_10  and  CB_13 
REMARK       I    between atoms: C_11  and  N_21 
REMARK    6  A    between atoms: CB_13  and  CG_14 
REMARK    7  A    between atoms: N_21  and  CA_22 
REMARK    8  A    between atoms: CA_22  and  C_23 
REMARK       I    between atoms: C_23  and  N_27 
REMARK    9  A    between atoms: N_27  and  CA_28 
REMARK   10  A    between atoms: CA_28  and  C_29 
REMARK   11  A    between atoms: CA_28  and  CB_31 
REMARK       I    between atoms: C_29  and  N_40 
REMARK   12  A    between atoms: CB_31  and  CG_32 
REMARK   13  A    between atoms: CG_32  and  CD_33 
REMARK   14  A    between atoms: CD_33  and  CE_34 
REMARK   15  A    between atoms: CE_34  and  NZ_35 
REMARK   16  A    between atoms: N_40  and  CA_41 
REMARK   17  A    between atoms: CA_41  and  CB_44 
REMARK   18  A    between atoms: CA_41  and  C_42 
REMARK       I    between atoms: C_42  and  N_49 
REMARK   19  A    between atoms: CB_44  and  CG_45 
REMARK   20  A    between atoms: N_49  and  CA_50 
REMARK   21  A    between atoms: CA_50  and  C_51 
REMARK   22  A    between atoms: CA_50  and  CB_53 
REMARK       I    between atoms: C_51  and  N_62 
REMARK   23  A    between atoms: CB_53  and  CG_54 
REMARK   24  A    between atoms: CG_54  and  CD_55 
REMARK   25  A    between atoms: CD_55  and  CE_56 
REMARK   26  A    between atoms: CE_56  and  NZ_57 
REMARK   27  A    between atoms: N_62  and  CA_63 
REMARK   28  A    between atoms: CA_63  and  CB_66 
REMARK   29  A    between atoms: CA_63  and  C_64 
REMARK   30  A    between atoms: CB_66  and  CG_67 
REMARK   31  A    between atoms: CG_67  and  CD_68 
REMARK   32  A    between atoms: CD_68  and  CE_69 
REMARK   33  A    between atoms: CE_69  and  NZ_70 
ROOT
ATOM      1  N   ALA     1      52.655  38.486  48.965  1.00  0.00    -0.058 N 
ATOM      2  H1  ALA     1      51.681  38.262  48.946  1.00 99.99     0.276 HD
ATOM      3  H2  ALA     1      53.110  38.009  48.214  1.00 99.99     0.276 HD
ATOM      4  H3  ALA     1      53.087  38.108  49.781  1.00 99.99     0.276 HD
ENDROOT
BRANCH   1   5
ATOM      5  CA  ALA     1      52.866  39.956  48.876  1.00  0.00     0.255 C 
ATOM      6  CB  ALA     1      52.053  40.616  49.999  1.00  0.00     0.042 C 
BRANCH   5   7
ATOM      7  C   ALA     1      54.329  40.492  48.875  1.00  0.00     0.259 C 
ATOM      8  O   ALA     1      55.131  40.135  48.010  1.00  0.00    -0.271 OA
ATOM      9  N   PHE     2      54.760  41.086  49.994  1.00  0.00    -0.337 N 
ATOM     10  H   PHE     2      54.263  40.998  50.856  1.00 99.99     0.164 HD
BRANCH   9  11
ATOM     11  CA  PHE     2      56.017  41.872  50.095  1.00  0.00     0.164 C 
BRANCH  11  12
ATOM     12  C   PHE     2      56.345  42.797  48.899  1.00  0.00     0.251 C 
ATOM     13  N   ALA     3      57.384  42.441  48.141  1.00  0.00    -0.338 N 
ATOM     14  H   ALA     3      57.985  41.693  48.413  1.00 99.99     0.164 HD
ATOM     15  O   PHE     2      55.547  43.671  48.562  1.00  0.00    -0.271 OA
BRANCH  13  16
ATOM     16  CA  ALA     3      57.829  43.156  46.921  1.00  0.00     0.159 C 
ATOM     17  CB  ALA     3      58.728  44.321  47.345  1.00  0.00     0.034 C 
BRANCH  16  18
ATOM     18  C   ALA     3      58.538  42.316  45.834  1.00  0.00     0.251 C 
ATOM     19  O   ALA     3      57.930  41.410  45.270  1.00  0.00    -0.271 OA
ATOM     20  N   LYS     4      59.793  42.646  45.529  1.00  0.00    -0.338 N 
ATOM     21  H   LYS     4      60.240  43.441  45.942  1.00 99.99     0.164 HD
BRANCH  20  22
ATOM     22  CA  LYS     4      60.656  41.913  44.570  1.00  0.00     0.159 C 
BRANCH  22  23
ATOM     23  C   LYS     4      62.010  41.438  45.144  1.00  0.00     0.251 C 
ATOM     24  N   LEU     5      62.824  42.405  45.558  1.00  0.00    -0.338 N 
ATOM     25  H   LEU     5      62.643  43.359  45.319  1.00 99.99     0.164 HD
ATOM     26  O   LYS     4      62.374  40.270  45.022  1.00  0.00    -0.271 OA
BRANCH  24  27
ATOM     27  CA  LEU     5      64.122  42.193  46.236  1.00  0.00     0.159 C 
BRANCH  27  28
ATOM     28  CB  LEU     5      65.222  42.952  45.482  1.00  0.00     0.032 C 
BRANCH  28  29
ATOM     29  CG  LEU     5      66.314  42.060  44.879  1.00  0.00     0.002 C 
ATOM     30  CD2 LEU     5      66.205  40.620  45.392  1.00  0.00     0.000 C 
ATOM     31  CD1 LEU     5      67.684  42.631  45.246  1.00  0.00     0.000 C 
ENDBRANCH  28  29
ENDBRANCH  27  28
BRANCH  27  32
ATOM     32  C   LEU     5      64.109  42.678  47.698  1.00  0.00     0.251 C 
ATOM     33  O   LEU     5      65.108  42.562  48.404  1.00  0.00    -0.271 OA
ATOM     34  N   LYS     6      63.041  43.397  48.048  1.00  0.00    -0.338 N 
ATOM     35  H   LYS     6      62.433  43.776  47.353  1.00 99.99     0.164 HD
BRANCH  34  36
ATOM     36  CA  LYS     6      62.782  43.893  49.416  1.00  0.00     0.159 C 
BRANCH  36  37
ATOM     37  C   LYS     6      61.867  42.961  50.248  1.00  0.00     0.251 C 
ATOM     38  O   LYS     6      60.673  42.836  49.984  1.00  0.00    -0.271 OA
ATOM     39  N   LYS     7      62.469  42.224  51.178  1.00  0.00    -0.336 N 
ATOM     40  H   LYS     7      63.456  42.276  51.315  1.00 99.99     0.164 HD
BRANCH  39  41
ATOM     41  CA  LYS     7      61.759  41.399  52.181  1.00  0.00     0.168 C 
BRANCH  41  42
ATOM     42  CB  LYS     7      61.537  39.967  51.691  1.00  0.00     0.033 C 
BRANCH  42  43
ATOM     43  CG  LYS     7      60.774  38.985  52.576  1.00  0.00     0.004 C 
BRANCH  43  44
ATOM     44  CD  LYS     7      60.217  37.959  51.590  1.00  0.00     0.032 C 
BRANCH  44  45
ATOM     45  CE  LYS     7      60.333  38.341  50.118  1.00  0.00     0.206 C 
BRANCH  45  46
ATOM     46  NZ  LYS     7      59.062  38.003  49.464  1.00  0.00    -0.064 N 
ATOM     47  HZ1 LYS     7      58.773  37.084  49.733  1.00 99.99     0.275 HD
ATOM     48  HZ2 LYS     7      58.367  38.670  49.732  1.00 99.99     0.275 HD
ATOM     49  HZ3 LYS     7      59.184  38.039  48.472  1.00 99.99     0.275 HD
ENDBRANCH  45  46
ENDBRANCH  44  45
ENDBRANCH  43  44
ENDBRANCH  42  43
ENDBRANCH  41  42
BRANCH  41  50
ATOM     50  C   LYS     7      62.672  41.242  53.405  1.00  0.00     0.206 C 
ATOM     51  OXT LYS     7      62.221  41.750  54.457  1.00 99.99    -0.646 OA
ATOM     52  O   LYS     7      63.757  40.635  53.272  1.00 99.99    -0.646 OA
ENDBRANCH  41  50
ENDBRANCH  39  41
ENDBRANCH  36  37
BRANCH  36  53
ATOM     53  CB  LYS     6      62.181  45.298  49.308  1.00  0.00     0.032 C 
BRANCH  53  54
ATOM     54  CG  LYS     6      63.296  46.344  49.367  1.00  0.00     0.004 C 
BRANCH  54  55
ATOM     55  CD  LYS     6      64.407  45.968  50.342  1.00  0.00     0.032 C 
BRANCH  55  56
ATOM     56  CE  LYS     6      65.750  46.211  49.653  1.00  0.00     0.206 C 
BRANCH  56  57
ATOM     57  NZ  LYS     6      66.479  44.956  49.426  1.00  0.00    -0.064 N 
ATOM     58  HZ3 LYS     6      67.458  45.146  49.369  1.00 99.99     0.275 HD
ATOM     59  HZ2 LYS     6      66.160  44.542  48.575  1.00 99.99     0.275 HD
ATOM     60  HZ1 LYS     6      66.303  44.335  50.189  1.00 99.99     0.275 HD
ENDBRANCH  56  57
ENDBRANCH  55  56
ENDBRANCH  54  55
ENDBRANCH  53  54
ENDBRANCH  36  53
ENDBRANCH  34  36
ENDBRANCH  27  32
ENDBRANCH  24  27
ENDBRANCH  22  23
BRANCH  22  61
ATOM     61  CB  LYS     4      60.953  42.801  43.359  1.00  0.00     0.032 C 
BRANCH  61  62
ATOM     62  CG  LYS     4      59.726  43.425  42.698  1.00  0.00     0.004 C 
BRANCH  62  63
ATOM     63  CD  LYS     4      59.594  42.826  41.297  1.00  0.00     0.032 C 
BRANCH  63  64
ATOM     64  CE  LYS     4      58.583  41.682  41.246  1.00  0.00     0.206 C 
BRANCH  64  65
ATOM     65  NZ  LYS     4      57.602  41.815  42.334  1.00  0.00    -0.064 N 
ATOM     66  HZ3 LYS     4      58.003  41.477  43.186  1.00 99.99     0.275 HD
ATOM     67  HZ2 LYS     4      56.784  41.283  42.120  1.00 99.99     0.275 HD
ATOM     68  HZ1 LYS     4      57.356  42.779  42.444  1.00 99.99     0.275 HD
ENDBRANCH  64  65
ENDBRANCH  63  64
ENDBRANCH  62  63
ENDBRANCH  61  62
ENDBRANCH  22  61
ENDBRANCH  20  22
ENDBRANCH  16  18
ENDBRANCH  13  16
ENDBRANCH  11  12
BRANCH  11  69
ATOM     69  CB  PHE     2      57.157  40.893  50.412  1.00  0.00     0.056 C 
BRANCH  69  70
ATOM     70  CG  PHE     2      57.402  40.685  51.909  1.00  0.00    -0.044 A 
ATOM     71  CD2 PHE     2      58.161  41.613  52.614  1.00  0.00     0.008 A 
ATOM     72  CE2 PHE     2      58.437  41.405  53.959  1.00  0.00     0.001 A 
ATOM     73  CZ  PHE     2      57.966  40.266  54.599  1.00  0.00     0.000 A 
ATOM     74  CE1 PHE     2      57.209  39.338  53.893  1.00  0.00     0.001 A 
ATOM     75  CD1 PHE     2      56.931  39.544  52.548  1.00  0.00     0.008 A 
ENDBRANCH  69  70
ENDBRANCH  11  69
ENDBRANCH   9  11
ENDBRANCH   5   7
ENDBRANCH   1   5
TORSDOF 33
ENDMDL
MODEL 8
REMARK VINA RESULT:      -5.0      2.510      8.459
REMARK WARNING: 32 MAX_TORS EXCEEDED!!!
REMARK  33 active torsions:
REMARK  status: ('A' for Active; 'I' for Inactive)
REMARK    1  A    between atoms: N_1  and  CA_2 
REMARK    2  A    between atoms: CA_2  and  C_3 
REMARK       I    between atoms: C_3  and  N_9 
REMARK    3  A    between atoms: N_9  and  CA_10 
REMARK    4  A    between atoms: CA_10  and  C_11 
REMARK    5  A    between atoms: CA_10  and  CB_13 
REMARK       I    between atoms: C_11  and  N_21 
REMARK    6  A    between atoms: CB_13  and  CG_14 
REMARK    7  A    between atoms: N_21  and  CA_22 
REMARK    8  A    between atoms: CA_22  and  C_23 
REMARK       I    between atoms: C_23  and  N_27 
REMARK    9  A    between atoms: N_27  and  CA_28 
REMARK   10  A    between atoms: CA_28  and  C_29 
REMARK   11  A    between atoms: CA_28  and  CB_31 
REMARK       I    between atoms: C_29  and  N_40 
REMARK   12  A    between atoms: CB_31  and  CG_32 
REMARK   13  A    between atoms: CG_32  and  CD_33 
REMARK   14  A    between atoms: CD_33  and  CE_34 
REMARK   15  A    between atoms: CE_34  and  NZ_35 
REMARK   16  A    between atoms: N_40  and  CA_41 
REMARK   17  A    between atoms: CA_41  and  CB_44 
REMARK   18  A    between atoms: CA_41  and  C_42 
REMARK       I    between atoms: C_42  and  N_49 
REMARK   19  A    between atoms: CB_44  and  CG_45 
REMARK   20  A    between atoms: N_49  and  CA_50 
REMARK   21  A    between atoms: CA_50  and  C_51 
REMARK   22  A    between atoms: CA_50  and  CB_53 
REMARK       I    between atoms: C_51  and  N_62 
REMARK   23  A    between atoms: CB_53  and  CG_54 
REMARK   24  A    between atoms: CG_54  and  CD_55 
REMARK   25  A    between atoms: CD_55  and  CE_56 
REMARK   26  A    between atoms: CE_56  and  NZ_57 
REMARK   27  A    between atoms: N_62  and  CA_63 
REMARK   28  A    between atoms: CA_63  and  CB_66 
REMARK   29  A    between atoms: CA_63  and  C_64 
REMARK   30  A    between atoms: CB_66  and  CG_67 
REMARK   31  A    between atoms: CG_67  and  CD_68 
REMARK   32  A    between atoms: CD_68  and  CE_69 
REMARK   33  A    between atoms: CE_69  and  NZ_70 
ROOT
ATOM      1  N   ALA     1      57.180  40.517  52.350  1.00  0.00    -0.058 N 
ATOM      2  H1  ALA     1      56.516  41.244  52.179  1.00 99.99     0.276 HD
ATOM      3  H2  ALA     1      57.676  40.327  51.503  1.00 99.99     0.276 HD
ATOM      4  H3  ALA     1      56.716  39.657  52.549  1.00 99.99     0.276 HD
ENDROOT
BRANCH   1   5
ATOM      5  CA  ALA     1      58.112  40.893  53.447  1.00  0.00     0.255 C 
ATOM      6  CB  ALA     1      58.827  39.616  53.914  1.00  0.00     0.042 C 
BRANCH   5   7
ATOM      7  C   ALA     1      59.145  42.028  53.180  1.00  0.00     0.259 C 
ATOM      8  O   ALA     1      58.796  43.210  53.175  1.00  0.00    -0.271 OA
ATOM      9  N   PHE     2      60.324  41.668  52.657  1.00  0.00    -0.337 N 
ATOM     10  H   PHE     2      60.460  40.766  52.252  1.00 99.99     0.164 HD
BRANCH   9  11
ATOM     11  CA  PHE     2      61.509  42.560  52.570  1.00  0.00     0.164 C 
BRANCH  11  12
ATOM     12  C   PHE     2      61.733  43.273  51.215  1.00  0.00     0.251 C 
ATOM     13  N   ALA     3      62.834  44.019  51.113  1.00  0.00    -0.338 N 
ATOM     14  H   ALA     3      63.404  44.205  51.910  1.00 99.99     0.164 HD
ATOM     15  O   PHE     2      61.043  42.971  50.242  1.00  0.00    -0.271 OA
BRANCH  13  16
ATOM     16  CA  ALA     3      63.262  44.737  49.889  1.00  0.00     0.159 C 
ATOM     17  CB  ALA     3      64.469  45.612  50.237  1.00  0.00     0.034 C 
BRANCH  16  18
ATOM     18  C   ALA     3      63.581  43.876  48.645  1.00  0.00     0.251 C 
ATOM     19  O   ALA     3      63.680  44.407  47.542  1.00  0.00    -0.271 OA
ATOM     20  N   LYS     4      63.772  42.570  48.839  1.00  0.00    -0.338 N 
ATOM     21  H   LYS     4      63.769  42.172  49.758  1.00 99.99     0.164 HD
BRANCH  20  22
ATOM     22  CA  LYS     4      64.014  41.577  47.764  1.00  0.00     0.159 C 
BRANCH  22  23
ATOM     23  C   LYS     4      62.960  40.450  47.671  1.00  0.00     0.251 C 
ATOM     24  N   LEU     5      61.722  40.799  48.008  1.00  0.00    -0.338 N 
ATOM     25  H   LEU     5      61.548  41.664  48.478  1.00 99.99     0.164 HD
ATOM     26  O   LYS     4      63.299  39.280  47.502  1.00  0.00    -0.271 OA
BRANCH  24  27
ATOM     27  CA  LEU     5      60.532  39.926  47.900  1.00  0.00     0.159 C 
BRANCH  27  28
ATOM     28  CB  LEU     5      59.845  39.826  49.268  1.00  0.00     0.032 C 
BRANCH  28  29
ATOM     29  CG  LEU     5      59.564  38.394  49.738  1.00  0.00     0.002 C 
ATOM     30  CD2 LEU     5      60.313  37.368  48.881  1.00  0.00     0.000 C 
ATOM     31  CD1 LEU     5      58.060  38.128  49.655  1.00  0.00     0.000 C 
ENDBRANCH  28  29
ENDBRANCH  27  28
BRANCH  27  32
ATOM     32  C   LEU     5      59.508  40.452  46.876  1.00  0.00     0.251 C 
ATOM     33  O   LEU     5      58.924  39.677  46.122  1.00  0.00    -0.271 OA
ATOM     34  N   LYS     6      59.167  41.733  47.021  1.00  0.00    -0.338 N 
ATOM     35  H   LYS     6      59.383  42.224  47.863  1.00 99.99     0.164 HD
BRANCH  34  36
ATOM     36  CA  LYS     6      58.266  42.464  46.107  1.00  0.00     0.159 C 
BRANCH  36  37
ATOM     37  C   LYS     6      58.925  42.833  44.754  1.00  0.00     0.251 C 
ATOM     38  O   LYS     6      59.498  43.909  44.595  1.00  0.00    -0.271 OA
ATOM     39  N   LYS     7      58.937  41.878  43.827  1.00  0.00    -0.336 N 
ATOM     40  H   LYS     7      58.544  40.979  44.011  1.00 99.99     0.164 HD
BRANCH  39  41
ATOM     41  CA  LYS     7      59.369  42.078  42.426  1.00  0.00     0.168 C 
BRANCH  41  42
ATOM     42  CB  LYS     7      60.648  41.303  42.104  1.00  0.00     0.033 C 
BRANCH  42  43
ATOM     43  CG  LYS     7      61.690  41.092  43.198  1.00  0.00     0.004 C 
BRANCH  43  44
ATOM     44  CD  LYS     7      62.680  42.237  42.989  1.00  0.00     0.032 C 
BRANCH  44  45
ATOM     45  CE  LYS     7      63.368  42.741  44.254  1.00  0.00     0.206 C 
BRANCH  45  46
ATOM     46  NZ  LYS     7      62.325  43.204  45.179  1.00  0.00    -0.064 N 
ATOM     47  HZ1 LYS     7      61.683  42.462  45.369  1.00 99.99     0.275 HD
ATOM     48  HZ2 LYS     7      62.753  43.510  46.030  1.00 99.99     0.275 HD
ATOM     49  HZ3 LYS     7      61.838  43.972  44.764  1.00 99.99     0.275 HD
ENDBRANCH  45  46
ENDBRANCH  44  45
ENDBRANCH  43  44
ENDBRANCH  42  43
ENDBRANCH  41  42
BRANCH  41  50
ATOM     50  C   LYS     7      58.309  41.456  41.506  1.00  0.00     0.206 C 
ATOM     51  OXT LYS     7      57.815  40.387  41.931  1.00 99.99    -0.646 OA
ATOM     52  O   LYS     7      58.019  42.044  40.441  1.00 99.99    -0.646 OA
ENDBRANCH  41  50
ENDBRANCH  39  41
ENDBRANCH  36  37
BRANCH  36  53
ATOM     53  CB  LYS     6      57.765  43.718  46.831  1.00  0.00     0.032 C 
BRANCH  53  54
ATOM     54  CG  LYS     6      57.354  43.360  48.260  1.00  0.00     0.004 C 
BRANCH  54  55
ATOM     55  CD  LYS     6      55.992  43.932  48.643  1.00  0.00     0.032 C 
BRANCH  55  56
ATOM     56  CE  LYS     6      55.534  43.253  49.933  1.00  0.00     0.206 C 
BRANCH  56  57
ATOM     57  NZ  LYS     6      54.246  42.569  49.760  1.00  0.00    -0.064 N 
ATOM     58  HZ3 LYS     6      54.221  42.128  48.864  1.00 99.99     0.275 HD
ATOM     59  HZ2 LYS     6      53.508  43.237  49.834  1.00 99.99     0.275 HD
ATOM     60  HZ1 LYS     6      54.147  41.877  50.475  1.00 99.99     0.275 HD
ENDBRANCH  56  57
ENDBRANCH  55  56
ENDBRANCH  54  55
ENDBRANCH  53  54
ENDBRANCH  36  53
ENDBRANCH  34  36
ENDBRANCH  27  32
ENDBRANCH  24  27
ENDBRANCH  22  23
BRANCH  22  61
ATOM     61  CB  LYS     4      65.380  40.916  47.967  1.00  0.00     0.032 C 
BRANCH  61  62
ATOM     62  CG  LYS     4      66.549  41.886  48.131  1.00  0.00     0.004 C 
BRANCH  62  63
ATOM     63  CD  LYS     4      66.704  42.656  46.818  1.00  0.00     0.032 C 
BRANCH  63  64
ATOM     64  CE  LYS     4      67.312  44.042  47.025  1.00  0.00     0.206 C 
BRANCH  64  65
ATOM     65  NZ  LYS     4      66.352  45.087  46.639  1.00  0.00    -0.064 N 
ATOM     66  HZ3 LYS     4      65.461  44.669  46.458  1.00 99.99     0.275 HD
ATOM     67  HZ2 LYS     4      66.671  45.553  45.815  1.00 99.99     0.275 HD
ATOM     68  HZ1 LYS     4      66.261  45.748  47.384  1.00 99.99     0.275 HD
ENDBRANCH  64  65
ENDBRANCH  63  64
ENDBRANCH  62  63
ENDBRANCH  61  62
ENDBRANCH  22  61
ENDBRANCH  20  22
ENDBRANCH  16  18
ENDBRANCH  13  16
ENDBRANCH  11  12
BRANCH  11  69
ATOM     69  CB  PHE     2      62.735  41.755  53.022  1.00  0.00     0.056 C 
BRANCH  69  70
ATOM     70  CG  PHE     2      62.719  40.291  52.576  1.00  0.00    -0.044 A 
ATOM     71  CD2 PHE     2      62.416  39.297  53.501  1.00  0.00     0.008 A 
ATOM     72  CE2 PHE     2      62.455  37.962  53.122  1.00  0.00     0.001 A 
ATOM     73  CZ  PHE     2      62.804  37.616  51.823  1.00  0.00     0.000 A 
ATOM     74  CE1 PHE     2      63.109  38.609  50.899  1.00  0.00     0.001 A 
ATOM     75  CD1 PHE     2      63.071  39.946  51.276  1.00  0.00     0.008 A 
ENDBRANCH  69  70
ENDBRANCH  11  69
ENDBRANCH   9  11
ENDBRANCH   5   7
ENDBRANCH   1   5
TORSDOF 33
ENDMDL
MODEL 9
REMARK VINA RESULT:      -4.9      2.993     11.258
REMARK WARNING: 32 MAX_TORS EXCEEDED!!!
REMARK  33 active torsions:
REMARK  status: ('A' for Active; 'I' for Inactive)
REMARK    1  A    between atoms: N_1  and  CA_2 
REMARK    2  A    between atoms: CA_2  and  C_3 
REMARK       I    between atoms: C_3  and  N_9 
REMARK    3  A    between atoms: N_9  and  CA_10 
REMARK    4  A    between atoms: CA_10  and  C_11 
REMARK    5  A    between atoms: CA_10  and  CB_13 
REMARK       I    between atoms: C_11  and  N_21 
REMARK    6  A    between atoms: CB_13  and  CG_14 
REMARK    7  A    between atoms: N_21  and  CA_22 
REMARK    8  A    between atoms: CA_22  and  C_23 
REMARK       I    between atoms: C_23  and  N_27 
REMARK    9  A    between atoms: N_27  and  CA_28 
REMARK   10  A    between atoms: CA_28  and  C_29 
REMARK   11  A    between atoms: CA_28  and  CB_31 
REMARK       I    between atoms: C_29  and  N_40 
REMARK   12  A    between atoms: CB_31  and  CG_32 
REMARK   13  A    between atoms: CG_32  and  CD_33 
REMARK   14  A    between atoms: CD_33  and  CE_34 
REMARK   15  A    between atoms: CE_34  and  NZ_35 
REMARK   16  A    between atoms: N_40  and  CA_41 
REMARK   17  A    between atoms: CA_41  and  CB_44 
REMARK   18  A    between atoms: CA_41  and  C_42 
REMARK       I    between atoms: C_42  and  N_49 
REMARK   19  A    between atoms: CB_44  and  CG_45 
REMARK   20  A    between atoms: N_49  and  CA_50 
REMARK   21  A    between atoms: CA_50  and  C_51 
REMARK   22  A    between atoms: CA_50  and  CB_53 
REMARK       I    between atoms: C_51  and  N_62 
REMARK   23  A    between atoms: CB_53  and  CG_54 
REMARK   24  A    between atoms: CG_54  and  CD_55 
REMARK   25  A    between atoms: CD_55  and  CE_56 
REMARK   26  A    between atoms: CE_56  and  NZ_57 
REMARK   27  A    between atoms: N_62  and  CA_63 
REMARK   28  A    between atoms: CA_63  and  CB_66 
REMARK   29  A    between atoms: CA_63  and  C_64 
REMARK   30  A    between atoms: CB_66  and  CG_67 
REMARK   31  A    between atoms: CG_67  and  CD_68 
REMARK   32  A    between atoms: CD_68  and  CE_69 
REMARK   33  A    between atoms: CE_69  and  NZ_70 
ROOT
ATOM      1  N   ALA     1      69.274  43.235  54.414  1.00  0.00    -0.058 N 
ATOM      2  H1  ALA     1      68.662  44.020  54.320  1.00 99.99     0.276 HD
ATOM      3  H2  ALA     1      70.157  43.554  54.758  1.00 99.99     0.276 HD
ATOM      4  H3  ALA     1      69.494  42.851  53.520  1.00 99.99     0.276 HD
ENDROOT
BRANCH   1   5
ATOM      5  CA  ALA     1      68.685  42.206  55.313  1.00  0.00     0.255 C 
ATOM      6  CB  ALA     1      67.764  42.925  56.309  1.00  0.00     0.042 C 
BRANCH   5   7
ATOM      7  C   ALA     1      67.948  40.996  54.665  1.00  0.00     0.259 C 
ATOM      8  O   ALA     1      68.491  40.325  53.785  1.00  0.00    -0.271 OA
ATOM      9  N   PHE     2      66.628  40.910  54.864  1.00  0.00    -0.337 N 
ATOM     10  H   PHE     2      66.102  41.683  55.215  1.00 99.99     0.164 HD
BRANCH   9  11
ATOM     11  CA  PHE     2      65.809  39.712  54.545  1.00  0.00     0.164 C 
BRANCH  11  12
ATOM     12  C   PHE     2      65.184  39.665  53.130  1.00  0.00     0.251 C 
ATOM     13  N   ALA     3      64.052  40.351  52.959  1.00  0.00    -0.338 N 
ATOM     14  H   ALA     3      63.578  40.759  53.736  1.00 99.99     0.164 HD
ATOM     15  O   PHE     2      65.829  39.203  52.190  1.00  0.00    -0.271 OA
BRANCH  13  16
ATOM     16  CA  ALA     3      63.325  40.481  51.674  1.00  0.00     0.159 C 
ATOM     17  CB  ALA     3      62.307  39.341  51.577  1.00  0.00     0.034 C 
BRANCH  16  18
ATOM     18  C   ALA     3      62.627  41.832  51.396  1.00  0.00     0.251 C 
ATOM     19  O   ALA     3      62.507  42.655  52.300  1.00  0.00    -0.271 OA
ATOM     20  N   LYS     4      62.210  42.059  50.150  1.00  0.00    -0.338 N 
ATOM     21  H   LYS     4      62.393  41.409  49.411  1.00 99.99     0.164 HD
BRANCH  20  22
ATOM     22  CA  LYS     4      61.458  43.260  49.711  1.00  0.00     0.159 C 
BRANCH  22  23
ATOM     23  C   LYS     4      60.119  42.964  48.998  1.00  0.00     0.251 C 
ATOM     24  N   LEU     5      59.760  43.846  48.071  1.00  0.00    -0.338 N 
ATOM     25  H   LEU     5      60.226  44.728  48.001  1.00 99.99     0.164 HD
ATOM     26  O   LYS     4      59.358  42.095  49.418  1.00  0.00    -0.271 OA
BRANCH  24  27
ATOM     27  CA  LEU     5      58.579  43.722  47.188  1.00  0.00     0.159 C 
BRANCH  27  28
ATOM     28  CB  LEU     5      58.590  42.345  46.512  1.00  0.00     0.032 C 
BRANCH  28  29
ATOM     29  CG  LEU     5      58.967  42.366  45.026  1.00  0.00     0.002 C 
ATOM     30  CD2 LEU     5      60.419  41.924  44.812  1.00  0.00     0.000 C 
ATOM     31  CD1 LEU     5      58.779  43.783  44.483  1.00  0.00     0.000 C 
ENDBRANCH  28  29
ENDBRANCH  27  28
BRANCH  27  32
ATOM     32  C   LEU     5      57.252  43.880  47.954  1.00  0.00     0.251 C 
ATOM     33  O   LEU     5      56.596  44.914  47.861  1.00  0.00    -0.271 OA
ATOM     34  N   LYS     6      56.793  42.767  48.529  1.00  0.00    -0.338 N 
ATOM     35  H   LYS     6      57.162  41.875  48.276  1.00 99.99     0.164 HD
BRANCH  34  36
ATOM     36  CA  LYS     6      55.585  42.705  49.377  1.00  0.00     0.159 C 
BRANCH  36  37
ATOM     37  C   LYS     6      55.872  42.956  50.879  1.00  0.00     0.251 C 
ATOM     38  O   LYS     6      55.308  43.857  51.496  1.00  0.00    -0.271 OA
ATOM     39  N   LYS     7      56.667  42.074  51.480  1.00  0.00    -0.336 N 
ATOM     40  H   LYS     7      57.043  41.297  50.979  1.00 99.99     0.164 HD
BRANCH  39  41
ATOM     41  CA  LYS     7      57.192  42.223  52.855  1.00  0.00     0.168 C 
BRANCH  41  42
ATOM     42  CB  LYS     7      56.775  41.060  53.758  1.00  0.00     0.033 C 
BRANCH  42  43
ATOM     43  CG  LYS     7      55.320  40.600  53.759  1.00  0.00     0.004 C 
BRANCH  43  44
ATOM     44  CD  LYS     7      55.389  39.160  53.253  1.00  0.00     0.032 C 
BRANCH  44  45
ATOM     45  CE  LYS     7      54.461  38.177  53.959  1.00  0.00     0.206 C 
BRANCH  45  46
ATOM     46  NZ  LYS     7      54.385  36.961  53.138  1.00  0.00    -0.064 N 
ATOM     47  HZ1 LYS     7      54.391  36.151  53.725  1.00 99.99     0.275 HD
ATOM     48  HZ2 LYS     7      53.545  36.982  52.597  1.00 99.99     0.275 HD
ATOM     49  HZ3 LYS     7      55.171  36.934  52.520  1.00 99.99     0.275 HD
ENDBRANCH  45  46
ENDBRANCH  44  45
ENDBRANCH  43  44
ENDBRANCH  42  43
ENDBRANCH  41  42
BRANCH  41  50
ATOM     50  C   LYS     7      58.723  42.124  52.797  1.00  0.00     0.206 C 
ATOM     51  OXT LYS     7      59.322  43.186  53.082  1.00 99.99    -0.646 OA
ATOM     52  O   LYS     7      59.243  41.030  52.488  1.00 99.99    -0.646 OA
ENDBRANCH  41  50
ENDBRANCH  39  41
ENDBRANCH  36  37
BRANCH  36  53
ATOM     53  CB  LYS     6      54.923  41.341  49.167  1.00  0.00     0.032 C 
BRANCH  53  54
ATOM     54  CG  LYS     6      53.436  41.427  49.518  1.00  0.00     0.004 C 
BRANCH  54  55
ATOM     55  CD  LYS     6      52.669  40.162  49.149  1.00  0.00     0.032 C 
BRANCH  55  56
ATOM     56  CE  LYS     6      51.642  39.888  50.247  1.00  0.00     0.206 C 
BRANCH  56  57
ATOM     57  NZ  LYS     6      52.254  39.917  51.582  1.00  0.00    -0.064 N 
ATOM     58  HZ3 LYS     6      52.316  38.986  51.940  1.00 99.99     0.275 HD
ATOM     59  HZ2 LYS     6      51.693  40.479  52.187  1.00 99.99     0.275 HD
ATOM     60  HZ1 LYS     6      53.171  40.309  51.511  1.00 99.99     0.275 HD
ENDBRANCH  56  57
ENDBRANCH  55  56
ENDBRANCH  54  55
ENDBRANCH  53  54
ENDBRANCH  36  53
ENDBRANCH  34  36
ENDBRANCH  27  32
ENDBRANCH  24  27
ENDBRANCH  22  23
BRANCH  22  61
ATOM     61  CB  LYS     4      62.319  44.088  48.752  1.00  0.00     0.032 C 
BRANCH  61  62
ATOM     62  CG  LYS     4      62.727  45.463  49.275  1.00  0.00     0.004 C 
BRANCH  62  63
ATOM     63  CD  LYS     4      64.063  45.309  50.003  1.00  0.00     0.032 C 
BRANCH  63  64
ATOM     64  CE  LYS     4      65.195  46.066  49.310  1.00  0.00     0.206 C 
BRANCH  64  65
ATOM     65  NZ  LYS     4      66.200  46.499  50.292  1.00  0.00    -0.064 N 
ATOM     66  HZ3 LYS     4      66.868  45.767  50.429  1.00 99.99     0.275 HD
ATOM     67  HZ2 LYS     4      65.755  46.706  51.163  1.00 99.99     0.275 HD
ATOM     68  HZ1 LYS     4      66.669  47.315  49.952  1.00 99.99     0.275 HD
ENDBRANCH  64  65
ENDBRANCH  63  64
ENDBRANCH  62  63
ENDBRANCH  61  62
ENDBRANCH  22  61
ENDBRANCH  20  22
ENDBRANCH  16  18
ENDBRANCH  13  16
ENDBRANCH  11  12
BRANCH  11  69
ATOM     69  CB  PHE     2      64.762  39.550  55.657  1.00  0.00     0.056 C 
BRANCH  69  70
ATOM     70  CG  PHE     2      64.895  40.569  56.791  1.00  0.00    -0.044 A 
ATOM     71  CD2 PHE     2      65.676  40.261  57.900  1.00  0.00     0.008 A 
ATOM     72  CE2 PHE     2      65.757  41.153  58.961  1.00  0.00     0.001 A 
ATOM     73  CZ  PHE     2      65.052  42.349  58.921  1.00  0.00     0.000 A 
ATOM     74  CE1 PHE     2      64.270  42.656  57.813  1.00  0.00     0.001 A 
ATOM     75  CD1 PHE     2      64.187  41.765  56.751  1.00  0.00     0.008 A 
ENDBRANCH  69  70
ENDBRANCH  11  69
ENDBRANCH   9  11
ENDBRANCH   5   7
ENDBRANCH   1   5
TORSDOF 33
ENDMDL
