MODEL 1
REMARK VINA RESULT:      -4.5      0.000      0.000
REMARK WARNING: 32 MAX_TORS EXCEEDED!!!
REMARK  33 active torsions:
REMARK  status: ('A' for Active; 'I' for Inactive)
REMARK    1  A    between atoms: N_1  and  CA_2 
REMARK    2  A    between atoms: CA_2  and  C_3 
REMARK    3  A    between atoms: CA_2  and  CB_5 
REMARK       I    between atoms: C_3  and  N_16 
REMARK    4  A    between atoms: CB_5  and  CG_6 
REMARK    5  A    between atoms: CG_6  and  CD_7 
REMARK    6  A    between atoms: CD_7  and  CE_8 
REMARK    7  A    between atoms: CE_8  and  NZ_9 
REMARK    8  A    between atoms: N_16  and  CA_17 
REMARK    9  A    between atoms: CA_17  and  C_18 
REMARK   10  A    between atoms: CA_17  and  CB_20 
REMARK       I    between atoms: C_18  and  N_29 
REMARK   11  A    between atoms: CB_20  and  CG_21 
REMARK   12  A    between atoms: CG_21  and  CD_22 
REMARK   13  A    between atoms: CD_22  and  CE_23 
REMARK   14  A    between atoms: CE_23  and  NZ_24 
REMARK   15  A    between atoms: N_29  and  CA_30 
REMARK   16  A    between atoms: CA_30  and  CB_33 
REMARK   17  A    between atoms: CA_30  and  C_31 
REMARK       I    between atoms: C_31  and  N_42 
REMARK   18  A    between atoms: CB_33  and  CG_34 
REMARK   19  A    between atoms: CG_34  and  CD_35 
REMARK   20  A    between atoms: CD_35  and  CE_36 
REMARK   21  A    between atoms: CE_36  and  NZ_37 
REMARK   22  A    between atoms: N_42  and  CA_43 
REMARK   23  A    between atoms: CA_43  and  CB_46 
REMARK   24  A    between atoms: CA_43  and  C_44 
REMARK       I    between atoms: C_44  and  N_51 
REMARK   25  A    between atoms: CB_46  and  CG_47 
REMARK   26  A    between atoms: N_51  and  CA_52 
REMARK   27  A    between atoms: CA_52  and  C_53 
REMARK       I    between atoms: C_53  and  N_57 
REMARK   28  A    between atoms: N_57  and  CA_58 
REMARK   29  A    between atoms: CA_58  and  C_59 
REMARK   30  A    between atoms: CA_58  and  CB_61 
REMARK       I    between atoms: C_59  and  N_69 
REMARK   31  A    between atoms: CB_61  and  CG_62 
REMARK   32  A    between atoms: N_69  and  CA_70 
REMARK   33  A    between atoms: CA_70  and  C_71 
ROOT
ATOM      1  N   LYS     1      59.022  44.098  47.019  1.00  0.00    -0.058 N 
ATOM      2  H1  LYS     1      59.622  44.024  46.224  1.00 99.99     0.276 HD
ATOM      3  H2  LYS     1      59.024  45.023  47.350  1.00 99.99     0.276 HD
ATOM      4  H3  LYS     1      59.415  43.558  47.758  1.00 99.99     0.276 HD
ENDROOT
BRANCH   1   5
ATOM      5  CA  LYS     1      57.669  43.617  46.650  1.00  0.00     0.255 C 
BRANCH   5   6
ATOM      6  C   LYS     1      56.703  43.821  47.845  1.00  0.00     0.259 C 
ATOM      7  N   LYS     2      56.461  42.821  48.712  1.00  0.00    -0.338 N 
ATOM      8  H   LYS     2      56.936  41.946  48.630  1.00 99.99     0.164 HD
ATOM      9  O   LYS     1      56.477  44.994  48.131  1.00  0.00    -0.271 OA
BRANCH   7  10
ATOM     10  CA  LYS     2      55.470  42.855  49.828  1.00  0.00     0.159 C 
BRANCH  10  11
ATOM     11  C   LYS     2      55.987  42.554  51.256  1.00  0.00     0.251 C 
ATOM     12  N   LYS     3      57.111  41.838  51.391  1.00  0.00    -0.338 N 
ATOM     13  H   LYS     3      57.556  41.417  50.601  1.00 99.99     0.164 HD
ATOM     14  O   LYS     2      55.430  43.095  52.208  1.00  0.00    -0.271 OA
BRANCH  12  15
ATOM     15  CA  LYS     3      57.765  41.544  52.692  1.00  0.00     0.159 C 
BRANCH  15  16
ATOM     16  CB  LYS     3      58.058  40.035  52.773  1.00  0.00     0.032 C 
BRANCH  16  17
ATOM     17  CG  LYS     3      57.748  39.448  54.157  1.00  0.00     0.004 C 
BRANCH  17  18
ATOM     18  CD  LYS     3      56.329  38.882  54.267  1.00  0.00     0.032 C 
BRANCH  18  19
ATOM     19  CE  LYS     3      55.391  39.943  54.852  1.00  0.00     0.206 C 
BRANCH  19  20
ATOM     20  NZ  LYS     3      54.487  40.517  53.843  1.00  0.00    -0.064 N 
ATOM     21  HZ1 LYS     3      55.031  40.967  53.133  1.00 99.99     0.275 HD
ATOM     22  HZ2 LYS     3      53.940  39.792  53.425  1.00 99.99     0.275 HD
ATOM     23  HZ3 LYS     3      53.883  41.190  54.268  1.00 99.99     0.275 HD
ENDBRANCH  19  20
ENDBRANCH  18  19
ENDBRANCH  17  18
ENDBRANCH  16  17
ENDBRANCH  15  16
BRANCH  15  24
ATOM     24  C   LYS     3      59.040  42.380  52.974  1.00  0.00     0.251 C 
ATOM     25  O   LYS     3      58.929  43.513  53.442  1.00  0.00    -0.271 OA
ATOM     26  N   LEU     4      60.175  41.943  52.425  1.00  0.00    -0.338 N 
ATOM     27  H   LEU     4      60.170  41.176  51.778  1.00 99.99     0.164 HD
BRANCH  26  28
ATOM     28  CA  LEU     4      61.507  42.579  52.572  1.00  0.00     0.159 C 
BRANCH  28  29
ATOM     29  CB  LEU     4      62.351  41.745  53.545  1.00  0.00     0.032 C 
BRANCH  29  30
ATOM     30  CG  LEU     4      61.835  40.325  53.804  1.00  0.00     0.002 C 
ATOM     31  CD2 LEU     4      61.436  40.127  55.270  1.00  0.00     0.000 C 
ATOM     32  CD1 LEU     4      62.935  39.332  53.430  1.00  0.00     0.000 C 
ENDBRANCH  29  30
ENDBRANCH  28  29
BRANCH  28  33
ATOM     33  C   LEU     4      62.323  42.783  51.274  1.00  0.00     0.251 C 
ATOM     34  N   ALA     5      61.998  43.853  50.554  1.00  0.00    -0.338 N 
ATOM     35  H   ALA     5      61.191  44.400  50.780  1.00 99.99     0.164 HD
ATOM     36  O   LEU     4      63.044  41.887  50.840  1.00  0.00    -0.271 OA
BRANCH  34  37
ATOM     37  CA  ALA     5      62.694  44.297  49.327  1.00  0.00     0.159 C 
ATOM     38  CB  ALA     5      64.164  44.531  49.687  1.00  0.00     0.034 C 
BRANCH  37  39
ATOM     39  C   ALA     5      62.569  43.291  48.159  1.00  0.00     0.251 C 
ATOM     40  N   PHE     6      63.522  42.361  48.119  1.00  0.00    -0.337 N 
ATOM     41  H   PHE     6      64.359  42.478  48.649  1.00 99.99     0.164 HD
ATOM     42  O   ALA     5      61.734  43.440  47.271  1.00  0.00    -0.271 OA
BRANCH  40  43
ATOM     43  CA  PHE     6      63.562  41.203  47.204  1.00  0.00     0.164 C 
BRANCH  43  44
ATOM     44  C   PHE     6      62.393  40.232  47.476  1.00  0.00     0.251 C 
ATOM     45  N   ALA     7      61.690  40.481  48.577  1.00  0.00    -0.336 N 
ATOM     46  H   ALA     7      61.952  41.220  49.198  1.00 99.99     0.164 HD
ATOM     47  O   PHE     6      62.188  39.264  46.748  1.00  0.00    -0.271 OA
BRANCH  45  48
ATOM     48  CA  ALA     7      60.480  39.741  48.988  1.00  0.00     0.168 C 
ATOM     49  CB  ALA     7      60.761  39.079  50.340  1.00  0.00     0.036 C 
BRANCH  48  50
ATOM     50  C   ALA     7      59.299  40.716  49.134  1.00  0.00     0.206 C 
ATOM     51  OXT ALA     7      59.608  41.913  49.322  1.00 99.99    -0.646 OA
ATOM     52  O   ALA     7      58.145  40.270  48.956  1.00 99.99    -0.646 OA
ENDBRANCH  48  50
ENDBRANCH  45  48
ENDBRANCH  43  44
BRANCH  43  53
ATOM     53  CB  PHE     6      64.921  40.517  47.402  1.00  0.00     0.056 C 
BRANCH  53  54
ATOM     54  CG  PHE     6      66.107  41.401  47.010  1.00  0.00    -0.044 A 
ATOM     55  CD2 PHE     6      66.246  41.817  45.691  1.00  0.00     0.008 A 
ATOM     56  CE2 PHE     6      67.221  42.748  45.358  1.00  0.00     0.001 A 
ATOM     57  CZ  PHE     6      68.063  43.255  46.341  1.00  0.00     0.000 A 
ATOM     58  CE1 PHE     6      67.934  42.822  47.656  1.00  0.00     0.001 A 
ATOM     59  CD1 PHE     6      66.962  41.889  47.990  1.00  0.00     0.008 A 
ENDBRANCH  53  54
ENDBRANCH  43  53
ENDBRANCH  40  43
ENDBRANCH  37  39
ENDBRANCH  34  37
ENDBRANCH  28  33
ENDBRANCH  26  28
ENDBRANCH  15  24
ENDBRANCH  12  15
ENDBRANCH  10  11
BRANCH  10  60
ATOM     60  CB  LYS     2      54.189  42.067  49.488  1.00  0.00     0.032 C 
BRANCH  60  61
ATOM     61  CG  LYS     2      54.436  40.547  49.496  1.00  0.00     0.004 C 
BRANCH  61  62
ATOM     62  CD  LYS     2      53.517  39.753  48.560  1.00  0.00     0.032 C 
BRANCH  62  63
ATOM     63  CE  LYS     2      54.244  39.422  47.250  1.00  0.00     0.206 C 
BRANCH  63  64
ATOM     64  NZ  LYS     2      55.710  39.513  47.360  1.00  0.00    -0.064 N 
ATOM     65  HZ1 LYS     2      56.083  38.609  47.577  1.00 99.99     0.275 HD
ATOM     66  HZ3 LYS     2      55.961  40.151  48.088  1.00 99.99     0.275 HD
ATOM     67  HZ2 LYS     2      56.099  39.823  46.491  1.00 99.99     0.275 HD
ENDBRANCH  63  64
ENDBRANCH  62  63
ENDBRANCH  61  62
ENDBRANCH  60  61
ENDBRANCH  10  60
ENDBRANCH   7  10
ENDBRANCH   5   6
BRANCH   5  68
ATOM     68  CB  LYS     1      57.687  42.196  46.041  1.00  0.00     0.040 C 
BRANCH  68  69
ATOM     69  CG  LYS     1      58.110  42.221  44.562  1.00  0.00     0.004 C 
BRANCH  69  70
ATOM     70  CD  LYS     1      58.738  43.549  44.110  1.00  0.00     0.032 C 
BRANCH  70  71
ATOM     71  CE  LYS     1      60.081  43.311  43.403  1.00  0.00     0.206 C 
BRANCH  71  72
ATOM     72  NZ  LYS     1      61.238  43.303  44.317  1.00  0.00    -0.064 N 
ATOM     73  HZ1 LYS     1      62.003  43.789  43.891  1.00 99.99     0.275 HD
ATOM     74  HZ2 LYS     1      61.002  43.762  45.174  1.00 99.99     0.275 HD
ATOM     75  HZ3 LYS     1      61.520  42.363  44.509  1.00 99.99     0.275 HD
ENDBRANCH  71  72
ENDBRANCH  70  71
ENDBRANCH  69  70
ENDBRANCH  68  69
ENDBRANCH   5  68
ENDBRANCH   1   5
TORSDOF 33
ENDMDL
MODEL 2
REMARK VINA RESULT:      -4.4      2.367      6.712
REMARK WARNING: 32 MAX_TORS EXCEEDED!!!
REMARK  33 active torsions:
REMARK  status: ('A' for Active; 'I' for Inactive)
REMARK    1  A    between atoms: N_1  and  CA_2 
REMARK    2  A    between atoms: CA_2  and  C_3 
REMARK    3  A    between atoms: CA_2  and  CB_5 
REMARK       I    between atoms: C_3  and  N_16 
REMARK    4  A    between atoms: CB_5  and  CG_6 
REMARK    5  A    between atoms: CG_6  and  CD_7 
REMARK    6  A    between atoms: CD_7  and  CE_8 
REMARK    7  A    between atoms: CE_8  and  NZ_9 
REMARK    8  A    between atoms: N_16  and  CA_17 
REMARK    9  A    between atoms: CA_17  and  C_18 
REMARK   10  A    between atoms: CA_17  and  CB_20 
REMARK       I    between atoms: C_18  and  N_29 
REMARK   11  A    between atoms: CB_20  and  CG_21 
REMARK   12  A    between atoms: CG_21  and  CD_22 
REMARK   13  A    between atoms: CD_22  and  CE_23 
REMARK   14  A    between atoms: CE_23  and  NZ_24 
REMARK   15  A    between atoms: N_29  and  CA_30 
REMARK   16  A    between atoms: CA_30  and  CB_33 
REMARK   17  A    between atoms: CA_30  and  C_31 
REMARK       I    between atoms: C_31  and  N_42 
REMARK   18  A    between atoms: CB_33  and  CG_34 
REMARK   19  A    between atoms: CG_34  and  CD_35 
REMARK   20  A    between atoms: CD_35  and  CE_36 
REMARK   21  A    between atoms: CE_36  and  NZ_37 
REMARK   22  A    between atoms: N_42  and  CA_43 
REMARK   23  A    between atoms: CA_43  and  CB_46 
REMARK   24  A    between atoms: CA_43  and  C_44 
REMARK       I    between atoms: C_44  and  N_51 
REMARK   25  A    between atoms: CB_46  and  CG_47 
REMARK   26  A    between atoms: N_51  and  CA_52 
REMARK   27  A    between atoms: CA_52  and  C_53 
REMARK       I    between atoms: C_53  and  N_57 
REMARK   28  A    between atoms: N_57  and  CA_58 
REMARK   29  A    between atoms: CA_58  and  C_59 
REMARK   30  A    between atoms: CA_58  and  CB_61 
REMARK       I    between atoms: C_59  and  N_69 
REMARK   31  A    between atoms: CB_61  and  CG_62 
REMARK   32  A    between atoms: N_69  and  CA_70 
REMARK   33  A    between atoms: CA_70  and  C_71 
ROOT
ATOM      1  N   LYS     1      55.418  43.793  49.051  1.00  0.00    -0.058 N 
ATOM      2  H1  LYS     1      56.358  43.754  48.714  1.00 99.99     0.276 HD
ATOM      3  H2  LYS     1      54.794  43.760  48.293  1.00 99.99     0.276 HD
ATOM      4  H3  LYS     1      55.273  44.687  49.466  1.00 99.99     0.276 HD
ENDROOT
BRANCH   1   5
ATOM      5  CA  LYS     1      55.208  42.696  50.026  1.00  0.00     0.255 C 
BRANCH   5   6
ATOM      6  C   LYS     1      56.122  42.917  51.258  1.00  0.00     0.259 C 
ATOM      7  N   LYS     2      57.371  42.418  51.286  1.00  0.00    -0.338 N 
ATOM      8  H   LYS     2      57.749  41.937  50.495  1.00 99.99     0.164 HD
ATOM      9  O   LYS     1      55.775  43.832  52.000  1.00  0.00    -0.271 OA
BRANCH   7  10
ATOM     10  CA  LYS     2      58.302  42.461  52.452  1.00  0.00     0.159 C 
BRANCH  10  11
ATOM     11  C   LYS     2      59.817  42.318  52.166  1.00  0.00     0.251 C 
ATOM     12  N   LYS     3      60.213  42.125  50.900  1.00  0.00    -0.338 N 
ATOM     13  H   LYS     3      59.551  41.975  50.167  1.00 99.99     0.164 HD
ATOM     14  O   LYS     2      60.610  42.521  53.082  1.00  0.00    -0.271 OA
BRANCH  12  15
ATOM     15  CA  LYS     3      61.633  42.052  50.470  1.00  0.00     0.159 C 
BRANCH  15  16
ATOM     16  CB  LYS     3      61.889  40.676  49.829  1.00  0.00     0.032 C 
BRANCH  16  17
ATOM     17  CG  LYS     3      62.032  39.559  50.871  1.00  0.00     0.004 C 
BRANCH  17  18
ATOM     18  CD  LYS     3      63.461  39.410  51.402  1.00  0.00     0.032 C 
BRANCH  18  19
ATOM     19  CE  LYS     3      64.463  39.835  50.324  1.00  0.00     0.206 C 
BRANCH  19  20
ATOM     20  NZ  LYS     3      65.853  39.825  50.808  1.00  0.00    -0.064 N 
ATOM     21  HZ1 LYS     3      65.878  39.424  51.724  1.00 99.99     0.275 HD
ATOM     22  HZ2 LYS     3      66.422  39.278  50.195  1.00 99.99     0.275 HD
ATOM     23  HZ3 LYS     3      66.206  40.759  50.850  1.00 99.99     0.275 HD
ENDBRANCH  19  20
ENDBRANCH  18  19
ENDBRANCH  17  18
ENDBRANCH  16  17
ENDBRANCH  15  16
BRANCH  15  24
ATOM     24  C   LYS     3      62.080  43.202  49.530  1.00  0.00     0.251 C 
ATOM     25  O   LYS     3      61.242  43.996  49.105  1.00  0.00    -0.271 OA
ATOM     26  N   LEU     4      63.300  43.099  48.997  1.00  0.00    -0.338 N 
ATOM     27  H   LEU     4      63.844  42.265  49.121  1.00 99.99     0.164 HD
BRANCH  26  28
ATOM     28  CA  LEU     4      63.930  44.084  48.085  1.00  0.00     0.159 C 
BRANCH  28  29
ATOM     29  CB  LEU     4      65.221  44.605  48.731  1.00  0.00     0.032 C 
BRANCH  29  30
ATOM     30  CG  LEU     4      65.037  45.772  49.706  1.00  0.00     0.002 C 
ATOM     31  CD2 LEU     4      63.837  46.646  49.325  1.00  0.00     0.000 C 
ATOM     32  CD1 LEU     4      66.312  46.616  49.700  1.00  0.00     0.000 C 
ENDBRANCH  29  30
ENDBRANCH  28  29
BRANCH  28  33
ATOM     33  C   LEU     4      64.267  43.589  46.659  1.00  0.00     0.251 C 
ATOM     34  N   ALA     5      63.725  42.424  46.314  1.00  0.00    -0.338 N 
ATOM     35  H   ALA     5      63.248  41.858  46.987  1.00 99.99     0.164 HD
ATOM     36  O   LEU     4      65.159  44.125  46.005  1.00  0.00    -0.271 OA
BRANCH  34  37
ATOM     37  CA  ALA     5      63.837  41.797  44.979  1.00  0.00     0.159 C 
ATOM     38  CB  ALA     5      63.596  40.294  45.151  1.00  0.00     0.034 C 
BRANCH  37  39
ATOM     39  C   ALA     5      62.858  42.393  43.941  1.00  0.00     0.251 C 
ATOM     40  N   PHE     6      61.568  42.242  44.240  1.00  0.00    -0.337 N 
ATOM     41  H   PHE     6      61.288  41.586  44.937  1.00 99.99     0.164 HD
ATOM     42  O   ALA     5      63.254  42.841  42.868  1.00  0.00    -0.271 OA
BRANCH  40  43
ATOM     43  CA  PHE     6      60.435  42.838  43.504  1.00  0.00     0.164 C 
BRANCH  43  44
ATOM     44  C   PHE     6      59.286  43.226  44.459  1.00  0.00     0.251 C 
ATOM     45  N   ALA     7      58.841  42.247  45.243  1.00  0.00    -0.336 N 
ATOM     46  H   ALA     7      59.206  41.320  45.163  1.00 99.99     0.164 HD
ATOM     47  O   PHE     6      58.788  44.349  44.432  1.00  0.00    -0.271 OA
BRANCH  45  48
ATOM     48  CA  ALA     7      57.814  42.410  46.291  1.00  0.00     0.168 C 
ATOM     49  CB  ALA     7      56.771  41.303  46.113  1.00  0.00     0.036 C 
BRANCH  48  50
ATOM     50  C   ALA     7      58.463  42.281  47.679  1.00  0.00     0.206 C 
ATOM     51  OXT ALA     7      59.209  41.289  47.836  1.00 99.99    -0.646 OA
ATOM     52  O   ALA     7      58.287  43.208  48.498  1.00 99.99    -0.646 OA
ENDBRANCH  48  50
ENDBRANCH  45  48
ENDBRANCH  43  44
BRANCH  43  53
ATOM     53  CB  PHE     6      59.978  41.804  42.465  1.00  0.00     0.056 C 
BRANCH  53  54
ATOM     54  CG  PHE     6      59.578  42.428  41.126  1.00  0.00    -0.044 A 
ATOM     55  CD2 PHE     6      59.771  43.789  40.919  1.00  0.00     0.008 A 
ATOM     56  CE2 PHE     6      59.566  44.334  39.658  1.00  0.00     0.001 A 
ATOM     57  CZ  PHE     6      59.158  43.520  38.608  1.00  0.00     0.000 A 
ATOM     58  CE1 PHE     6      58.947  42.163  38.823  1.00  0.00     0.001 A 
ATOM     59  CD1 PHE     6      59.148  41.618  40.083  1.00  0.00     0.008 A 
ENDBRANCH  53  54
ENDBRANCH  43  53
ENDBRANCH  40  43
ENDBRANCH  37  39
ENDBRANCH  34  37
ENDBRANCH  28  33
ENDBRANCH  26  28
ENDBRANCH  15  24
ENDBRANCH  12  15
ENDBRANCH  10  11
BRANCH  10  60
ATOM     60  CB  LYS     2      57.833  41.550  53.603  1.00  0.00     0.032 C 
BRANCH  60  61
ATOM     61  CG  LYS     2      58.358  40.112  53.441  1.00  0.00     0.004 C 
BRANCH  61  62
ATOM     62  CD  LYS     2      57.294  39.097  53.004  1.00  0.00     0.032 C 
BRANCH  62  63
ATOM     63  CE  LYS     2      56.270  38.880  54.125  1.00  0.00     0.206 C 
BRANCH  63  64
ATOM     64  NZ  LYS     2      56.524  37.665  54.919  1.00  0.00    -0.064 N 
ATOM     65  HZ1 LYS     2      56.653  37.918  55.879  1.00 99.99     0.275 HD
ATOM     66  HZ3 LYS     2      57.350  37.207  54.589  1.00 99.99     0.275 HD
ATOM     67  HZ2 LYS     2      55.744  37.042  54.850  1.00 99.99     0.275 HD
ENDBRANCH  63  64
ENDBRANCH  62  63
ENDBRANCH  61  62
ENDBRANCH  60  61
ENDBRANCH  10  60
ENDBRANCH   7  10
ENDBRANCH   5   6
BRANCH   5  68
ATOM     68  CB  LYS     1      55.290  41.297  49.376  1.00  0.00     0.040 C 
BRANCH  68  69
ATOM     69  CG  LYS     1      55.112  40.179  50.418  1.00  0.00     0.004 C 
BRANCH  69  70
ATOM     70  CD  LYS     1      53.652  39.752  50.639  1.00  0.00     0.032 C 
BRANCH  70  71
ATOM     71  CE  LYS     1      52.861  39.794  49.324  1.00  0.00     0.206 C 
BRANCH  71  72
ATOM     72  NZ  LYS     1      51.646  40.628  49.391  1.00  0.00    -0.064 N 
ATOM     73  HZ1 LYS     1      50.844  40.065  49.184  1.00 99.99     0.275 HD
ATOM     74  HZ2 LYS     1      51.543  41.011  50.309  1.00 99.99     0.275 HD
ATOM     75  HZ3 LYS     1      51.700  41.371  48.723  1.00 99.99     0.275 HD
ENDBRANCH  71  72
ENDBRANCH  70  71
ENDBRANCH  69  70
ENDBRANCH  68  69
ENDBRANCH   5  68
ENDBRANCH   1   5
TORSDOF 33
ENDMDL
MODEL 3
REMARK VINA RESULT:      -4.2      2.571      7.322
REMARK WARNING: 32 MAX_TORS EXCEEDED!!!
REMARK  33 active torsions:
REMARK  status: ('A' for Active; 'I' for Inactive)
REMARK    1  A    between atoms: N_1  and  CA_2 
REMARK    2  A    between atoms: CA_2  and  C_3 
REMARK    3  A    between atoms: CA_2  and  CB_5 
REMARK       I    between atoms: C_3  and  N_16 
REMARK    4  A    between atoms: CB_5  and  CG_6 
REMARK    5  A    between atoms: CG_6  and  CD_7 
REMARK    6  A    between atoms: CD_7  and  CE_8 
REMARK    7  A    between atoms: CE_8  and  NZ_9 
REMARK    8  A    between atoms: N_16  and  CA_17 
REMARK    9  A    between atoms: CA_17  and  C_18 
REMARK   10  A    between atoms: CA_17  and  CB_20 
REMARK       I    between atoms: C_18  and  N_29 
REMARK   11  A    between atoms: CB_20  and  CG_21 
REMARK   12  A    between atoms: CG_21  and  CD_22 
REMARK   13  A    between atoms: CD_22  and  CE_23 
REMARK   14  A    between atoms: CE_23  and  NZ_24 
REMARK   15  A    between atoms: N_29  and  CA_30 
REMARK   16  A    between atoms: CA_30  and  CB_33 
REMARK   17  A    between atoms: CA_30  and  C_31 
REMARK       I    between atoms: C_31  and  N_42 
REMARK   18  A    between atoms: CB_33  and  CG_34 
REMARK   19  A    between atoms: CG_34  and  CD_35 
REMARK   20  A    between atoms: CD_35  and  CE_36 
REMARK   21  A    between atoms: CE_36  and  NZ_37 
REMARK   22  A    between atoms: N_42  and  CA_43 
REMARK   23  A    between atoms: CA_43  and  CB_46 
REMARK   24  A    between atoms: CA_43  and  C_44 
REMARK       I    between atoms: C_44  and  N_51 
REMARK   25  A    between atoms: CB_46  and  CG_47 
REMARK   26  A    between atoms: N_51  and  CA_52 
REMARK   27  A    between atoms: CA_52  and  C_53 
REMARK       I    between atoms: C_53  and  N_57 
REMARK   28  A    between atoms: N_57  and  CA_58 
REMARK   29  A    between atoms: CA_58  and  C_59 
REMARK   30  A    between atoms: CA_58  and  CB_61 
REMARK       I    between atoms: C_59  and  N_69 
REMARK   31  A    between atoms: CB_61  and  CG_62 
REMARK   32  A    between atoms: N_69  and  CA_70 
REMARK   33  A    between atoms: CA_70  and  C_71 
ROOT
ATOM      1  N   LYS     1      62.268  42.736  46.197  1.00  0.00    -0.058 N 
ATOM      2  H1  LYS     1      61.535  42.274  46.695  1.00 99.99     0.276 HD
ATOM      3  H2  LYS     1      62.154  43.709  46.267  1.00 99.99     0.276 HD
ATOM      4  H3  LYS     1      62.160  42.533  45.227  1.00 99.99     0.276 HD
ENDROOT
BRANCH   1   5
ATOM      5  CA  LYS     1      63.575  42.264  46.713  1.00  0.00     0.255 C 
BRANCH   5   6
ATOM      6  C   LYS     1      63.679  42.583  48.226  1.00  0.00     0.259 C 
ATOM      7  N   LYS     2      62.738  43.324  48.839  1.00  0.00    -0.338 N 
ATOM      8  H   LYS     2      61.931  43.640  48.342  1.00 99.99     0.164 HD
ATOM      9  O   LYS     1      64.439  41.852  48.856  1.00  0.00    -0.271 OA
BRANCH   7  10
ATOM     10  CA  LYS     2      62.784  43.796  50.255  1.00  0.00     0.159 C 
BRANCH  10  11
ATOM     11  C   LYS     2      61.892  43.060  51.285  1.00  0.00     0.251 C 
ATOM     12  N   LYS     3      60.879  42.309  50.832  1.00  0.00    -0.338 N 
ATOM     13  H   LYS     3      60.633  42.299  49.864  1.00 99.99     0.164 HD
ATOM     14  O   LYS     2      62.224  43.077  52.468  1.00  0.00    -0.271 OA
BRANCH  12  15
ATOM     15  CA  LYS     3      59.996  41.485  51.698  1.00  0.00     0.159 C 
BRANCH  15  16
ATOM     16  CB  LYS     3      58.925  42.395  52.326  1.00  0.00     0.032 C 
BRANCH  16  17
ATOM     17  CG  LYS     3      57.908  41.614  53.169  1.00  0.00     0.004 C 
BRANCH  17  18
ATOM     18  CD  LYS     3      56.469  41.759  52.664  1.00  0.00     0.032 C 
BRANCH  18  19
ATOM     19  CE  LYS     3      56.277  43.141  52.032  1.00  0.00     0.206 C 
BRANCH  19  20
ATOM     20  NZ  LYS     3      55.664  43.072  50.696  1.00  0.00    -0.064 N 
ATOM     21  HZ1 LYS     3      56.332  43.371  50.013  1.00 99.99     0.275 HD
ATOM     22  HZ2 LYS     3      55.390  42.132  50.496  1.00 99.99     0.275 HD
ATOM     23  HZ3 LYS     3      54.865  43.671  50.655  1.00 99.99     0.275 HD
ENDBRANCH  19  20
ENDBRANCH  18  19
ENDBRANCH  17  18
ENDBRANCH  16  17
ENDBRANCH  15  16
BRANCH  15  24
ATOM     24  C   LYS     3      59.352  40.267  50.987  1.00  0.00     0.251 C 
ATOM     25  O   LYS     3      59.798  39.140  51.197  1.00  0.00    -0.271 OA
ATOM     26  N   LEU     4      58.540  40.534  49.962  1.00  0.00    -0.338 N 
ATOM     27  H   LEU     4      58.445  41.470  49.613  1.00 99.99     0.164 HD
BRANCH  26  28
ATOM     28  CA  LEU     4      57.813  39.526  49.151  1.00  0.00     0.159 C 
BRANCH  28  29
ATOM     29  CB  LEU     4      56.319  39.597  49.494  1.00  0.00     0.032 C 
BRANCH  29  30
ATOM     30  CG  LEU     4      55.754  38.366  50.208  1.00  0.00     0.002 C 
ATOM     31  CD2 LEU     4      56.342  38.206  51.614  1.00  0.00     0.000 C 
ATOM     32  CD1 LEU     4      56.076  37.127  49.371  1.00  0.00     0.000 C 
ENDBRANCH  29  30
ENDBRANCH  28  29
BRANCH  28  33
ATOM     33  C   LEU     4      57.964  39.636  47.616  1.00  0.00     0.251 C 
ATOM     34  N   ALA     5      58.937  38.902  47.082  1.00  0.00    -0.338 N 
ATOM     35  H   ALA     5      59.599  38.425  47.660  1.00 99.99     0.164 HD
ATOM     36  O   LEU     4      57.380  40.518  46.990  1.00  0.00    -0.271 OA
BRANCH  34  37
ATOM     37  CA  ALA     5      59.213  38.780  45.633  1.00  0.00     0.159 C 
ATOM     38  CB  ALA     5      57.884  38.481  44.932  1.00  0.00     0.034 C 
BRANCH  37  39
ATOM     39  C   ALA     5      59.879  40.039  45.032  1.00  0.00     0.251 C 
ATOM     40  N   PHE     6      59.140  40.687  44.133  1.00  0.00    -0.337 N 
ATOM     41  H   PHE     6      58.347  40.242  43.722  1.00 99.99     0.164 HD
ATOM     42  O   ALA     5      61.050  40.322  45.273  1.00  0.00    -0.271 OA
BRANCH  40  43
ATOM     43  CA  PHE     6      59.471  41.987  43.517  1.00  0.00     0.164 C 
BRANCH  43  44
ATOM     44  C   PHE     6      59.187  43.156  44.485  1.00  0.00     0.251 C 
ATOM     45  N   ALA     7      58.809  42.802  45.710  1.00  0.00    -0.336 N 
ATOM     46  H   ALA     7      58.674  41.840  45.949  1.00 99.99     0.164 HD
ATOM     47  O   PHE     6      59.247  44.323  44.107  1.00  0.00    -0.271 OA
BRANCH  45  48
ATOM     48  CA  ALA     7      58.571  43.744  46.822  1.00  0.00     0.168 C 
ATOM     49  CB  ALA     7      57.064  43.999  46.918  1.00  0.00     0.036 C 
BRANCH  48  50
ATOM     50  C   ALA     7      59.069  43.129  48.140  1.00  0.00     0.206 C 
ATOM     51  OXT ALA     7      58.293  43.240  49.115  1.00 99.99    -0.646 OA
ATOM     52  O   ALA     7      60.141  42.486  48.120  1.00 99.99    -0.646 OA
ENDBRANCH  48  50
ENDBRANCH  45  48
ENDBRANCH  43  44
BRANCH  43  53
ATOM     53  CB  PHE     6      58.636  42.104  42.233  1.00  0.00     0.056 C 
BRANCH  53  54
ATOM     54  CG  PHE     6      59.473  42.442  40.998  1.00  0.00    -0.044 A 
ATOM     55  CD2 PHE     6      60.406  41.525  40.528  1.00  0.00     0.008 A 
ATOM     56  CE2 PHE     6      61.051  41.750  39.319  1.00  0.00     0.001 A 
ATOM     57  CZ  PHE     6      60.771  42.896  38.585  1.00  0.00     0.000 A 
ATOM     58  CE1 PHE     6      59.852  43.822  39.066  1.00  0.00     0.001 A 
ATOM     59  CD1 PHE     6      59.209  43.600  40.277  1.00  0.00     0.008 A 
ENDBRANCH  53  54
ENDBRANCH  43  53
ENDBRANCH  40  43
ENDBRANCH  37  39
ENDBRANCH  34  37
ENDBRANCH  28  33
ENDBRANCH  26  28
ENDBRANCH  15  24
ENDBRANCH  12  15
ENDBRANCH  10  11
BRANCH  10  60
ATOM     60  CB  LYS     2      62.659  45.329  50.359  1.00  0.00     0.032 C 
BRANCH  60  61
ATOM     61  CG  LYS     2      63.714  46.045  49.497  1.00  0.00     0.004 C 
BRANCH  61  62
ATOM     62  CD  LYS     2      65.093  46.167  50.159  1.00  0.00     0.032 C 
BRANCH  62  63
ATOM     63  CE  LYS     2      66.170  46.446  49.103  1.00  0.00     0.206 C 
BRANCH  63  64
ATOM     64  NZ  LYS     2      66.605  47.854  49.073  1.00  0.00    -0.064 N 
ATOM     65  HZ1 LYS     2      66.699  48.191  50.011  1.00 99.99     0.275 HD
ATOM     66  HZ3 LYS     2      65.928  48.412  48.593  1.00 99.99     0.275 HD
ATOM     67  HZ2 LYS     2      67.490  47.928  48.613  1.00 99.99     0.275 HD
ENDBRANCH  63  64
ENDBRANCH  62  63
ENDBRANCH  61  62
ENDBRANCH  60  61
ENDBRANCH  10  60
ENDBRANCH   7  10
ENDBRANCH   5   6
BRANCH   5  68
ATOM     68  CB  LYS     1      64.764  42.738  45.847  1.00  0.00     0.040 C 
BRANCH  68  69
ATOM     69  CG  LYS     1      65.449  43.975  46.457  1.00  0.00     0.004 C 
BRANCH  69  70
ATOM     70  CD  LYS     1      66.981  43.879  46.518  1.00  0.00     0.032 C 
BRANCH  70  71
ATOM     71  CE  LYS     1      67.442  43.249  47.840  1.00  0.00     0.206 C 
BRANCH  71  72
ATOM     72  NZ  LYS     1      67.407  41.774  47.837  1.00  0.00    -0.064 N 
ATOM     73  HZ1 LYS     1      68.331  41.419  47.684  1.00 99.99     0.275 HD
ATOM     74  HZ2 LYS     1      67.074  41.437  48.717  1.00 99.99     0.275 HD
ATOM     75  HZ3 LYS     1      66.809  41.445  47.105  1.00 99.99     0.275 HD
ENDBRANCH  71  72
ENDBRANCH  70  71
ENDBRANCH  69  70
ENDBRANCH  68  69
ENDBRANCH   5  68
ENDBRANCH   1   5
TORSDOF 33
ENDMDL
MODEL 4
REMARK VINA RESULT:      -4.1      2.167      8.712
REMARK WARNING: 32 MAX_TORS EXCEEDED!!!
REMARK  33 active torsions:
REMARK  status: ('A' for Active; 'I' for Inactive)
REMARK    1  A    between atoms: N_1  and  CA_2 
REMARK    2  A    between atoms: CA_2  and  C_3 
REMARK    3  A    between atoms: CA_2  and  CB_5 
REMARK       I    between atoms: C_3  and  N_16 
REMARK    4  A    between atoms: CB_5  and  CG_6 
REMARK    5  A    between atoms: CG_6  and  CD_7 
REMARK    6  A    between atoms: CD_7  and  CE_8 
REMARK    7  A    between atoms: CE_8  and  NZ_9 
REMARK    8  A    between atoms: N_16  and  CA_17 
REMARK    9  A    between atoms: CA_17  and  C_18 
REMARK   10  A    between atoms: CA_17  and  CB_20 
REMARK       I    between atoms: C_18  and  N_29 
REMARK   11  A    between atoms: CB_20  and  CG_21 
REMARK   12  A    between atoms: CG_21  and  CD_22 
REMARK   13  A    between atoms: CD_22  and  CE_23 
REMARK   14  A    between atoms: CE_23  and  NZ_24 
REMARK   15  A    between atoms: N_29  and  CA_30 
REMARK   16  A    between atoms: CA_30  and  CB_33 
REMARK   17  A    between atoms: CA_30  and  C_31 
REMARK       I    between atoms: C_31  and  N_42 
REMARK   18  A    between atoms: CB_33  and  CG_34 
REMARK   19  A    between atoms: CG_34  and  CD_35 
REMARK   20  A    between atoms: CD_35  and  CE_36 
REMARK   21  A    between atoms: CE_36  and  NZ_37 
REMARK   22  A    between atoms: N_42  and  CA_43 
REMARK   23  A    between atoms: CA_43  and  CB_46 
REMARK   24  A    between atoms: CA_43  and  C_44 
REMARK       I    between atoms: C_44  and  N_51 
REMARK   25  A    between atoms: CB_46  and  CG_47 
REMARK   26  A    between atoms: N_51  and  CA_52 
REMARK   27  A    between atoms: CA_52  and  C_53 
REMARK       I    between atoms: C_53  and  N_57 
REMARK   28  A    between atoms: N_57  and  CA_58 
REMARK   29  A    between atoms: CA_58  and  C_59 
REMARK   30  A    between atoms: CA_58  and  CB_61 
REMARK       I    between atoms: C_59  and  N_69 
REMARK   31  A    between atoms: CB_61  and  CG_62 
REMARK   32  A    between atoms: N_69  and  CA_70 
REMARK   33  A    between atoms: CA_70  and  C_71 
ROOT
ATOM      1  N   LYS     1      62.382  42.446  50.709  1.00  0.00    -0.058 N 
ATOM      2  H1  LYS     1      61.580  41.851  50.675  1.00 99.99     0.276 HD
ATOM      3  H2  LYS     1      63.116  42.042  50.197  1.00 99.99     0.276 HD
ATOM      4  H3  LYS     1      62.708  42.475  51.650  1.00 99.99     0.276 HD
ENDROOT
BRANCH   1   5
ATOM      5  CA  LYS     1      62.005  43.794  50.218  1.00  0.00     0.255 C 
BRANCH   5   6
ATOM      6  C   LYS     1      61.878  43.765  48.674  1.00  0.00     0.259 C 
ATOM      7  N   LYS     2      62.787  43.119  47.921  1.00  0.00    -0.338 N 
ATOM      8  H   LYS     2      63.532  42.606  48.346  1.00 99.99     0.164 HD
ATOM      9  O   LYS     1      60.762  44.044  48.243  1.00  0.00    -0.271 OA
BRANCH   7  10
ATOM     10  CA  LYS     2      62.841  43.116  46.429  1.00  0.00     0.159 C 
BRANCH  10  11
ATOM     11  C   LYS     2      61.597  42.597  45.667  1.00  0.00     0.251 C 
ATOM     12  N   LYS     3      60.783  41.731  46.287  1.00  0.00    -0.338 N 
ATOM     13  H   LYS     3      61.018  41.346  47.178  1.00 99.99     0.164 HD
ATOM     14  O   LYS     2      61.323  43.098  44.580  1.00  0.00    -0.271 OA
BRANCH  12  15
ATOM     15  CA  LYS     3      59.515  41.216  45.710  1.00  0.00     0.159 C 
BRANCH  15  16
ATOM     16  CB  LYS     3      59.483  39.685  45.866  1.00  0.00     0.032 C 
BRANCH  16  17
ATOM     17  CG  LYS     3      59.020  38.972  44.588  1.00  0.00     0.004 C 
BRANCH  17  18
ATOM     18  CD  LYS     3      57.568  38.488  44.661  1.00  0.00     0.032 C 
BRANCH  18  19
ATOM     19  CE  LYS     3      56.681  39.373  43.780  1.00  0.00     0.206 C 
BRANCH  19  20
ATOM     20  NZ  LYS     3      55.669  40.108  44.555  1.00  0.00    -0.064 N 
ATOM     21  HZ1 LYS     3      54.769  39.962  44.141  1.00 99.99     0.275 HD
ATOM     22  HZ2 LYS     3      55.653  39.774  45.497  1.00 99.99     0.275 HD
ATOM     23  HZ3 LYS     3      55.877  41.086  44.549  1.00 99.99     0.275 HD
ENDBRANCH  19  20
ENDBRANCH  18  19
ENDBRANCH  17  18
ENDBRANCH  16  17
ENDBRANCH  15  16
BRANCH  15  24
ATOM     24  C   LYS     3      58.233  41.867  46.291  1.00  0.00     0.251 C 
ATOM     25  O   LYS     3      57.965  43.034  46.007  1.00  0.00    -0.271 OA
ATOM     26  N   LEU     4      57.641  41.225  47.301  1.00  0.00    -0.338 N 
ATOM     27  H   LEU     4      58.073  40.424  47.722  1.00 99.99     0.164 HD
BRANCH  26  28
ATOM     28  CA  LEU     4      56.405  41.661  47.996  1.00  0.00     0.159 C 
BRANCH  28  29
ATOM     29  CB  LEU     4      55.658  40.420  48.505  1.00  0.00     0.032 C 
BRANCH  29  30
ATOM     30  CG  LEU     4      54.158  40.614  48.746  1.00  0.00     0.002 C 
ATOM     31  CD2 LEU     4      53.785  40.388  50.215  1.00  0.00     0.000 C 
ATOM     32  CD1 LEU     4      53.392  39.629  47.862  1.00  0.00     0.000 C 
ENDBRANCH  29  30
ENDBRANCH  28  29
BRANCH  28  33
ATOM     33  C   LEU     4      56.585  42.638  49.181  1.00  0.00     0.251 C 
ATOM     34  N   ALA     5      56.981  42.085  50.324  1.00  0.00    -0.338 N 
ATOM     35  H   ALA     5      57.023  41.091  50.429  1.00 99.99     0.164 HD
ATOM     36  O   LEU     4      56.160  43.789  49.113  1.00  0.00    -0.271 OA
BRANCH  34  37
ATOM     37  CA  ALA     5      57.301  42.829  51.563  1.00  0.00     0.159 C 
ATOM     38  CB  ALA     5      56.035  42.862  52.424  1.00  0.00     0.034 C 
BRANCH  37  39
ATOM     39  C   ALA     5      58.484  42.221  52.350  1.00  0.00     0.251 C 
ATOM     40  N   PHE     6      58.190  41.116  53.035  1.00  0.00    -0.337 N 
ATOM     41  H   PHE     6      57.238  40.873  53.209  1.00 99.99     0.164 HD
ATOM     42  O   ALA     5      59.563  42.802  52.438  1.00  0.00    -0.271 OA
BRANCH  40  43
ATOM     43  CA  PHE     6      59.156  40.259  53.749  1.00  0.00     0.164 C 
BRANCH  43  44
ATOM     44  C   PHE     6      60.170  39.622  52.774  1.00  0.00     0.251 C 
ATOM     45  N   ALA     7      59.766  39.535  51.509  1.00  0.00    -0.336 N 
ATOM     46  H   ALA     7      58.846  39.820  51.243  1.00 99.99     0.164 HD
ATOM     47  O   PHE     6      61.241  39.172  53.174  1.00  0.00    -0.271 OA
BRANCH  45  48
ATOM     48  CA  ALA     7      60.599  39.045  50.393  1.00  0.00     0.168 C 
ATOM     49  CB  ALA     7      59.900  37.831  49.773  1.00  0.00     0.036 C 
BRANCH  48  50
ATOM     50  C   ALA     7      60.745  40.147  49.331  1.00  0.00     0.206 C 
ATOM     51  OXT ALA     7      59.840  41.010  49.321  1.00 99.99    -0.646 OA
ATOM     52  O   ALA     7      61.784  40.160  48.638  1.00 99.99    -0.646 OA
ENDBRANCH  48  50
ENDBRANCH  45  48
ENDBRANCH  43  44
BRANCH  43  53
ATOM     53  CB  PHE     6      58.346  39.190  54.496  1.00  0.00     0.056 C 
BRANCH  53  54
ATOM     54  CG  PHE     6      57.573  39.745  55.694  1.00  0.00    -0.044 A 
ATOM     55  CD2 PHE     6      56.202  39.950  55.591  1.00  0.00     0.008 A 
ATOM     56  CE2 PHE     6      55.466  40.296  56.717  1.00  0.00     0.001 A 
ATOM     57  CZ  PHE     6      56.103  40.447  57.943  1.00  0.00     0.000 A 
ATOM     58  CE1 PHE     6      57.478  40.261  58.040  1.00  0.00     0.001 A 
ATOM     59  CD1 PHE     6      58.214  39.919  56.914  1.00  0.00     0.008 A 
ENDBRANCH  53  54
ENDBRANCH  43  53
ENDBRANCH  40  43
ENDBRANCH  37  39
ENDBRANCH  34  37
ENDBRANCH  28  33
ENDBRANCH  26  28
ENDBRANCH  15  24
ENDBRANCH  12  15
ENDBRANCH  10  11
BRANCH  10  60
ATOM     60  CB  LYS     2      64.152  42.504  45.898  1.00  0.00     0.032 C 
BRANCH  60  61
ATOM     61  CG  LYS     2      64.346  41.058  46.390  1.00  0.00     0.004 C 
BRANCH  61  62
ATOM     62  CD  LYS     2      65.686  40.804  47.091  1.00  0.00     0.032 C 
BRANCH  62  63
ATOM     63  CE  LYS     2      65.544  41.003  48.605  1.00  0.00     0.206 C 
BRANCH  63  64
ATOM     64  NZ  LYS     2      65.976  42.336  49.060  1.00  0.00    -0.064 N 
ATOM     65  HZ1 LYS     2      66.933  42.480  48.803  1.00 99.99     0.275 HD
ATOM     66  HZ3 LYS     2      65.893  42.402  50.055  1.00 99.99     0.275 HD
ATOM     67  HZ2 LYS     2      65.415  43.043  48.628  1.00 99.99     0.275 HD
ENDBRANCH  63  64
ENDBRANCH  62  63
ENDBRANCH  61  62
ENDBRANCH  60  61
ENDBRANCH  10  60
ENDBRANCH   7  10
ENDBRANCH   5   6
BRANCH   5  68
ATOM     68  CB  LYS     1      62.905  44.911  50.794  1.00  0.00     0.040 C 
BRANCH  68  69
ATOM     69  CG  LYS     1      62.695  46.243  50.052  1.00  0.00     0.004 C 
BRANCH  69  70
ATOM     70  CD  LYS     1      63.952  46.772  49.344  1.00  0.00     0.032 C 
BRANCH  70  71
ATOM     71  CE  LYS     1      65.165  45.875  49.629  1.00  0.00     0.206 C 
BRANCH  71  72
ATOM     72  NZ  LYS     1      66.303  46.592  50.233  1.00  0.00    -0.064 N 
ATOM     73  HZ1 LYS     1      65.960  47.291  50.864  1.00 99.99     0.275 HD
ATOM     74  HZ2 LYS     1      66.880  45.954  50.743  1.00 99.99     0.275 HD
ATOM     75  HZ3 LYS     1      66.847  47.039  49.522  1.00 99.99     0.275 HD
ENDBRANCH  71  72
ENDBRANCH  70  71
ENDBRANCH  69  70
ENDBRANCH  68  69
ENDBRANCH   5  68
ENDBRANCH   1   5
TORSDOF 33
ENDMDL
MODEL 5
REMARK VINA RESULT:      -4.1      2.062      8.347
REMARK WARNING: 32 MAX_TORS EXCEEDED!!!
REMARK  33 active torsions:
REMARK  status: ('A' for Active; 'I' for Inactive)
REMARK    1  A    between atoms: N_1  and  CA_2 
REMARK    2  A    between atoms: CA_2  and  C_3 
REMARK    3  A    between atoms: CA_2  and  CB_5 
REMARK       I    between atoms: C_3  and  N_16 
REMARK    4  A    between atoms: CB_5  and  CG_6 
REMARK    5  A    between atoms: CG_6  and  CD_7 
REMARK    6  A    between atoms: CD_7  and  CE_8 
REMARK    7  A    between atoms: CE_8  and  NZ_9 
REMARK    8  A    between atoms: N_16  and  CA_17 
REMARK    9  A    between atoms: CA_17  and  C_18 
REMARK   10  A    between atoms: CA_17  and  CB_20 
REMARK       I    between atoms: C_18  and  N_29 
REMARK   11  A    between atoms: CB_20  and  CG_21 
REMARK   12  A    between atoms: CG_21  and  CD_22 
REMARK   13  A    between atoms: CD_22  and  CE_23 
REMARK   14  A    between atoms: CE_23  and  NZ_24 
REMARK   15  A    between atoms: N_29  and  CA_30 
REMARK   16  A    between atoms: CA_30  and  CB_33 
REMARK   17  A    between atoms: CA_30  and  C_31 
REMARK       I    between atoms: C_31  and  N_42 
REMARK   18  A    between atoms: CB_33  and  CG_34 
REMARK   19  A    between atoms: CG_34  and  CD_35 
REMARK   20  A    between atoms: CD_35  and  CE_36 
REMARK   21  A    between atoms: CE_36  and  NZ_37 
REMARK   22  A    between atoms: N_42  and  CA_43 
REMARK   23  A    between atoms: CA_43  and  CB_46 
REMARK   24  A    between atoms: CA_43  and  C_44 
REMARK       I    between atoms: C_44  and  N_51 
REMARK   25  A    between atoms: CB_46  and  CG_47 
REMARK   26  A    between atoms: N_51  and  CA_52 
REMARK   27  A    between atoms: CA_52  and  C_53 
REMARK       I    between atoms: C_53  and  N_57 
REMARK   28  A    between atoms: N_57  and  CA_58 
REMARK   29  A    between atoms: CA_58  and  C_59 
REMARK   30  A    between atoms: CA_58  and  CB_61 
REMARK       I    between atoms: C_59  and  N_69 
REMARK   31  A    between atoms: CB_61  and  CG_62 
REMARK   32  A    between atoms: N_69  and  CA_70 
REMARK   33  A    between atoms: CA_70  and  C_71 
ROOT
ATOM      1  N   LYS     1      58.366  40.622  55.133  1.00  0.00    -0.058 N 
ATOM      2  H1  LYS     1      59.107  41.196  55.479  1.00 99.99     0.276 HD
ATOM      3  H2  LYS     1      57.559  40.760  55.676  1.00 99.99     0.276 HD
ATOM      4  H3  LYS     1      58.616  39.669  55.280  1.00 99.99     0.276 HD
ENDROOT
BRANCH   1   5
ATOM      5  CA  LYS     1      58.157  40.917  53.695  1.00  0.00     0.255 C 
BRANCH   5   6
ATOM      6  C   LYS     1      59.174  41.992  53.234  1.00  0.00     0.259 C 
ATOM      7  N   LYS     2      60.288  41.643  52.566  1.00  0.00    -0.338 N 
ATOM      8  H   LYS     2      60.456  40.691  52.312  1.00 99.99     0.164 HD
ATOM      9  O   LYS     1      58.734  43.139  53.204  1.00  0.00    -0.271 OA
BRANCH   7  10
ATOM     10  CA  LYS     2      61.395  42.564  52.173  1.00  0.00     0.159 C 
BRANCH  10  11
ATOM     11  C   LYS     2      61.381  43.127  50.731  1.00  0.00     0.251 C 
ATOM     12  N   LYS     3      62.169  44.173  50.445  1.00  0.00    -0.338 N 
ATOM     13  H   LYS     3      62.680  44.648  51.160  1.00 99.99     0.164 HD
ATOM     14  O   LYS     2      60.756  42.516  49.868  1.00  0.00    -0.271 OA
BRANCH  12  15
ATOM     15  CA  LYS     3      62.318  44.762  49.089  1.00  0.00     0.159 C 
BRANCH  15  16
ATOM     16  CB  LYS     3      63.350  45.902  49.152  1.00  0.00     0.032 C 
BRANCH  16  17
ATOM     17  CG  LYS     3      64.411  45.677  50.238  1.00  0.00     0.004 C 
BRANCH  17  18
ATOM     18  CD  LYS     3      65.825  46.054  49.786  1.00  0.00     0.032 C 
BRANCH  18  19
ATOM     19  CE  LYS     3      66.360  44.998  48.814  1.00  0.00     0.206 C 
BRANCH  19  20
ATOM     20  NZ  LYS     3      66.407  45.480  47.424  1.00  0.00    -0.064 N 
ATOM     21  HZ1 LYS     3      66.702  44.732  46.827  1.00 99.99     0.275 HD
ATOM     22  HZ2 LYS     3      65.500  45.787  47.140  1.00 99.99     0.275 HD
ATOM     23  HZ3 LYS     3      67.057  46.235  47.347  1.00 99.99     0.275 HD
ENDBRANCH  19  20
ENDBRANCH  18  19
ENDBRANCH  17  18
ENDBRANCH  16  17
ENDBRANCH  15  16
BRANCH  15  24
ATOM     24  C   LYS     3      62.676  43.740  47.979  1.00  0.00     0.251 C 
ATOM     25  O   LYS     3      61.916  43.595  47.023  1.00  0.00    -0.271 OA
ATOM     26  N   LEU     4      63.641  42.862  48.263  1.00  0.00    -0.338 N 
ATOM     27  H   LEU     4      64.030  42.809  49.187  1.00 99.99     0.164 HD
BRANCH  26  28
ATOM     28  CA  LEU     4      64.149  41.810  47.349  1.00  0.00     0.159 C 
BRANCH  28  29
ATOM     29  CB  LEU     4      65.529  41.352  47.837  1.00  0.00     0.032 C 
BRANCH  29  30
ATOM     30  CG  LEU     4      66.684  41.606  46.862  1.00  0.00     0.002 C 
ATOM     31  CD2 LEU     4      66.935  40.397  45.954  1.00  0.00     0.000 C 
ATOM     32  CD1 LEU     4      67.945  41.914  47.670  1.00  0.00     0.000 C 
ENDBRANCH  29  30
ENDBRANCH  28  29
BRANCH  28  33
ATOM     33  C   LEU     4      63.257  40.559  47.173  1.00  0.00     0.251 C 
ATOM     34  N   ALA     5      62.215  40.477  47.997  1.00  0.00    -0.338 N 
ATOM     35  H   ALA     5      62.109  41.117  48.758  1.00 99.99     0.164 HD
ATOM     36  O   LEU     4      63.635  39.612  46.487  1.00  0.00    -0.271 OA
BRANCH  34  37
ATOM     37  CA  ALA     5      61.181  39.420  47.957  1.00  0.00     0.159 C 
ATOM     38  CB  ALA     5      60.995  38.900  49.386  1.00  0.00     0.034 C 
BRANCH  37  39
ATOM     39  C   ALA     5      59.835  39.906  47.372  1.00  0.00     0.251 C 
ATOM     40  N   PHE     6      59.699  41.230  47.310  1.00  0.00    -0.337 N 
ATOM     41  H   PHE     6      60.312  41.822  47.828  1.00 99.99     0.164 HD
ATOM     42  O   ALA     5      58.923  39.122  47.122  1.00  0.00    -0.271 OA
BRANCH  40  43
ATOM     43  CA  PHE     6      58.585  41.955  46.667  1.00  0.00     0.164 C 
BRANCH  43  44
ATOM     44  C   PHE     6      59.070  42.757  45.440  1.00  0.00     0.251 C 
ATOM     45  N   ALA     7      60.184  42.305  44.868  1.00  0.00    -0.336 N 
ATOM     46  H   ALA     7      60.682  41.530  45.256  1.00 99.99     0.164 HD
ATOM     47  O   PHE     6      58.490  43.778  45.077  1.00  0.00    -0.271 OA
BRANCH  45  48
ATOM     48  CA  ALA     7      60.780  42.858  43.636  1.00  0.00     0.168 C 
ATOM     49  CB  ALA     7      62.282  42.558  43.656  1.00  0.00     0.036 C 
BRANCH  48  50
ATOM     50  C   ALA     7      60.143  42.192  42.406  1.00  0.00     0.206 C 
ATOM     51  OXT ALA     7      60.443  40.991  42.226  1.00 99.99    -0.646 OA
ATOM     52  O   ALA     7      59.310  42.851  41.747  1.00 99.99    -0.646 OA
ENDBRANCH  48  50
ENDBRANCH  45  48
ENDBRANCH  43  44
BRANCH  43  53
ATOM     53  CB  PHE     6      57.969  42.874  47.732  1.00  0.00     0.056 C 
BRANCH  53  54
ATOM     54  CG  PHE     6      56.709  42.292  48.376  1.00  0.00    -0.044 A 
ATOM     55  CD2 PHE     6      56.034  43.023  49.347  1.00  0.00     0.008 A 
ATOM     56  CE2 PHE     6      54.805  42.581  49.818  1.00  0.00     0.001 A 
ATOM     57  CZ  PHE     6      54.256  41.403  49.327  1.00  0.00     0.000 A 
ATOM     58  CE1 PHE     6      54.942  40.663  48.370  1.00  0.00     0.001 A 
ATOM     59  CD1 PHE     6      56.172  41.102  47.901  1.00  0.00     0.008 A 
ENDBRANCH  53  54
ENDBRANCH  43  53
ENDBRANCH  40  43
ENDBRANCH  37  39
ENDBRANCH  34  37
ENDBRANCH  28  33
ENDBRANCH  26  28
ENDBRANCH  15  24
ENDBRANCH  12  15
ENDBRANCH  10  11
BRANCH  10  60
ATOM     60  CB  LYS     2      62.778  42.013  52.575  1.00  0.00     0.032 C 
BRANCH  60  61
ATOM     61  CG  LYS     2      62.812  41.584  54.053  1.00  0.00     0.004 C 
BRANCH  61  62
ATOM     62  CD  LYS     2      63.700  40.366  54.336  1.00  0.00     0.032 C 
BRANCH  62  63
ATOM     63  CE  LYS     2      63.093  39.104  53.709  1.00  0.00     0.206 C 
BRANCH  63  64
ATOM     64  NZ  LYS     2      63.986  38.448  52.739  1.00  0.00    -0.064 N 
ATOM     65  HZ1 LYS     2      64.795  38.101  53.215  1.00 99.99     0.275 HD
ATOM     66  HZ3 LYS     2      64.277  39.104  52.042  1.00 99.99     0.275 HD
ATOM     67  HZ2 LYS     2      63.514  37.682  52.303  1.00 99.99     0.275 HD
ENDBRANCH  63  64
ENDBRANCH  62  63
ENDBRANCH  61  62
ENDBRANCH  60  61
ENDBRANCH  10  60
ENDBRANCH   7  10
ENDBRANCH   5   6
BRANCH   5  68
ATOM     68  CB  LYS     1      56.677  41.210  53.356  1.00  0.00     0.040 C 
BRANCH  68  69
ATOM     69  CG  LYS     1      56.160  40.281  52.243  1.00  0.00     0.004 C 
BRANCH  69  70
ATOM     70  CD  LYS     1      57.265  39.685  51.357  1.00  0.00     0.032 C 
BRANCH  70  71
ATOM     71  CE  LYS     1      56.837  38.329  50.779  1.00  0.00     0.206 C 
BRANCH  71  72
ATOM     72  NZ  LYS     1      57.441  38.027  49.468  1.00  0.00    -0.064 N 
ATOM     73  HZ1 LYS     1      57.716  38.881  49.023  1.00 99.99     0.275 HD
ATOM     74  HZ2 LYS     1      58.250  37.451  49.587  1.00 99.99     0.275 HD
ATOM     75  HZ3 LYS     1      56.780  37.557  48.882  1.00 99.99     0.275 HD
ENDBRANCH  71  72
ENDBRANCH  70  71
ENDBRANCH  69  70
ENDBRANCH  68  69
ENDBRANCH   5  68
ENDBRANCH   1   5
TORSDOF 33
ENDMDL
MODEL 6
REMARK VINA RESULT:      -4.1      1.914      5.149
REMARK WARNING: 32 MAX_TORS EXCEEDED!!!
REMARK  33 active torsions:
REMARK  status: ('A' for Active; 'I' for Inactive)
REMARK    1  A    between atoms: N_1  and  CA_2 
REMARK    2  A    between atoms: CA_2  and  C_3 
REMARK    3  A    between atoms: CA_2  and  CB_5 
REMARK       I    between atoms: C_3  and  N_16 
REMARK    4  A    between atoms: CB_5  and  CG_6 
REMARK    5  A    between atoms: CG_6  and  CD_7 
REMARK    6  A    between atoms: CD_7  and  CE_8 
REMARK    7  A    between atoms: CE_8  and  NZ_9 
REMARK    8  A    between atoms: N_16  and  CA_17 
REMARK    9  A    between atoms: CA_17  and  C_18 
REMARK   10  A    between atoms: CA_17  and  CB_20 
REMARK       I    between atoms: C_18  and  N_29 
REMARK   11  A    between atoms: CB_20  and  CG_21 
REMARK   12  A    between atoms: CG_21  and  CD_22 
REMARK   13  A    between atoms: CD_22  and  CE_23 
REMARK   14  A    between atoms: CE_23  and  NZ_24 
REMARK   15  A    between atoms: N_29  and  CA_30 
REMARK   16  A    between atoms: CA_30  and  CB_33 
REMARK   17  A    between atoms: CA_30  and  C_31 
REMARK       I    between atoms: C_31  and  N_42 
REMARK   18  A    between atoms: CB_33  and  CG_34 
REMARK   19  A    between atoms: CG_34  and  CD_35 
REMARK   20  A    between atoms: CD_35  and  CE_36 
REMARK   21  A    between atoms: CE_36  and  NZ_37 
REMARK   22  A    between atoms: N_42  and  CA_43 
REMARK   23  A    between atoms: CA_43  and  CB_46 
REMARK   24  A    between atoms: CA_43  and  C_44 
REMARK       I    between atoms: C_44  and  N_51 
REMARK   25  A    between atoms: CB_46  and  CG_47 
REMARK   26  A    between atoms: N_51  and  CA_52 
REMARK   27  A    between atoms: CA_52  and  C_53 
REMARK       I    between atoms: C_53  and  N_57 
REMARK   28  A    between atoms: N_57  and  CA_58 
REMARK   29  A    between atoms: CA_58  and  C_59 
REMARK   30  A    between atoms: CA_58  and  CB_61 
REMARK       I    between atoms: C_59  and  N_69 
REMARK   31  A    between atoms: CB_61  and  CG_62 
REMARK   32  A    between atoms: N_69  and  CA_70 
REMARK   33  A    between atoms: CA_70  and  C_71 
ROOT
ATOM      1  N   LYS     1      62.819  41.828  46.879  1.00  0.00    -0.058 N 
ATOM      2  H1  LYS     1      63.753  41.588  46.616  1.00 99.99     0.276 HD
ATOM      3  H2  LYS     1      62.349  41.026  47.196  1.00 99.99     0.276 HD
ATOM      4  H3  LYS     1      62.328  42.108  46.058  1.00 99.99     0.276 HD
ENDROOT
BRANCH   1   5
ATOM      5  CA  LYS     1      62.864  42.913  47.888  1.00  0.00     0.255 C 
BRANCH   5   6
ATOM      6  C   LYS     1      61.442  43.502  48.077  1.00  0.00     0.259 C 
ATOM      7  N   LYS     2      60.404  43.037  47.358  1.00  0.00    -0.338 N 
ATOM      8  H   LYS     2      60.521  42.272  46.726  1.00 99.99     0.164 HD
ATOM      9  O   LYS     1      61.278  44.126  49.122  1.00  0.00    -0.271 OA
BRANCH   7  10
ATOM     10  CA  LYS     2      59.019  43.596  47.364  1.00  0.00     0.159 C 
BRANCH  10  11
ATOM     11  C   LYS     2      58.013  43.007  48.382  1.00  0.00     0.251 C 
ATOM     12  N   LYS     3      56.719  43.337  48.267  1.00  0.00    -0.338 N 
ATOM     13  H   LYS     3      56.417  44.025  47.609  1.00 99.99     0.164 HD
ATOM     14  O   LYS     2      58.409  42.153  49.172  1.00  0.00    -0.271 OA
BRANCH  12  15
ATOM     15  CA  LYS     3      55.636  42.785  49.120  1.00  0.00     0.159 C 
BRANCH  15  16
ATOM     16  CB  LYS     3      55.401  41.313  48.735  1.00  0.00     0.032 C 
BRANCH  16  17
ATOM     17  CG  LYS     3      53.914  40.935  48.732  1.00  0.00     0.004 C 
BRANCH  17  18
ATOM     18  CD  LYS     3      53.449  40.305  50.049  1.00  0.00     0.032 C 
BRANCH  18  19
ATOM     19  CE  LYS     3      51.919  40.248  50.086  1.00  0.00     0.206 C 
BRANCH  19  20
ATOM     20  NZ  LYS     3      51.392  40.083  51.450  1.00  0.00    -0.064 N 
ATOM     21  HZ1 LYS     3      52.144  40.171  52.105  1.00 99.99     0.275 HD
ATOM     22  HZ2 LYS     3      50.710  40.790  51.639  1.00 99.99     0.275 HD
ATOM     23  HZ3 LYS     3      50.976  39.180  51.549  1.00 99.99     0.275 HD
ENDBRANCH  19  20
ENDBRANCH  18  19
ENDBRANCH  17  18
ENDBRANCH  16  17
ENDBRANCH  15  16
BRANCH  15  24
ATOM     24  C   LYS     3      55.878  42.935  50.644  1.00  0.00     0.251 C 
ATOM     25  O   LYS     3      55.678  44.023  51.184  1.00  0.00    -0.271 OA
ATOM     26  N   LEU     4      56.567  41.960  51.240  1.00  0.00    -0.338 N 
ATOM     27  H   LEU     4      56.993  41.229  50.699  1.00 99.99     0.164 HD
BRANCH  26  28
ATOM     28  CA  LEU     4      56.902  41.895  52.684  1.00  0.00     0.159 C 
BRANCH  28  29
ATOM     29  CB  LEU     4      56.468  40.530  53.234  1.00  0.00     0.032 C 
BRANCH  29  30
ATOM     30  CG  LEU     4      55.295  40.567  54.218  1.00  0.00     0.002 C 
ATOM     31  CD2 LEU     4      55.747  40.260  55.650  1.00  0.00     0.000 C 
ATOM     32  CD1 LEU     4      54.255  39.537  53.775  1.00  0.00     0.000 C 
ENDBRANCH  29  30
ENDBRANCH  28  29
BRANCH  28  33
ATOM     33  C   LEU     4      58.385  42.120  53.060  1.00  0.00     0.251 C 
ATOM     34  N   ALA     5      59.109  41.015  53.222  1.00  0.00    -0.338 N 
ATOM     35  H   ALA     5      58.677  40.113  53.231  1.00 99.99     0.164 HD
ATOM     36  O   LEU     4      58.782  43.229  53.411  1.00  0.00    -0.271 OA
BRANCH  34  37
ATOM     37  CA  ALA     5      60.562  40.983  53.498  1.00  0.00     0.159 C 
ATOM     38  CB  ALA     5      60.867  39.670  54.226  1.00  0.00     0.034 C 
BRANCH  37  39
ATOM     39  C   ALA     5      61.427  41.117  52.224  1.00  0.00     0.251 C 
ATOM     40  N   PHE     6      61.579  39.989  51.531  1.00  0.00    -0.337 N 
ATOM     41  H   PHE     6      61.359  39.111  51.949  1.00 99.99     0.164 HD
ATOM     42  O   ALA     5      62.031  42.155  51.965  1.00  0.00    -0.271 OA
BRANCH  40  43
ATOM     43  CA  PHE     6      62.229  39.867  50.211  1.00  0.00     0.164 C 
BRANCH  43  44
ATOM     44  C   PHE     6      61.382  39.010  49.245  1.00  0.00     0.251 C 
ATOM     45  N   ALA     7      60.247  39.569  48.834  1.00  0.00    -0.336 N 
ATOM     46  H   ALA     7      59.958  40.461  49.181  1.00 99.99     0.164 HD
ATOM     47  O   PHE     6      61.720  37.867  48.946  1.00  0.00    -0.271 OA
BRANCH  45  48
ATOM     48  CA  ALA     7      59.326  38.973  47.845  1.00  0.00     0.168 C 
ATOM     49  CB  ALA     7      57.960  38.792  48.513  1.00  0.00     0.036 C 
BRANCH  48  50
ATOM     50  C   ALA     7      59.183  39.913  46.637  1.00  0.00     0.206 C 
ATOM     51  OXT ALA     7      60.253  40.247  46.082  1.00 99.99    -0.646 OA
ATOM     52  O   ALA     7      58.030  40.188  46.241  1.00 99.99    -0.646 OA
ENDBRANCH  48  50
ENDBRANCH  45  48
ENDBRANCH  43  44
BRANCH  43  53
ATOM     53  CB  PHE     6      63.614  39.248  50.444  1.00  0.00     0.056 C 
BRANCH  53  54
ATOM     54  CG  PHE     6      64.633  39.621  49.366  1.00  0.00    -0.044 A 
ATOM     55  CD2 PHE     6      65.296  40.841  49.440  1.00  0.00     0.008 A 
ATOM     56  CE2 PHE     6      66.337  41.118  48.563  1.00  0.00     0.001 A 
ATOM     57  CZ  PHE     6      66.706  40.182  47.605  1.00  0.00     0.000 A 
ATOM     58  CE1 PHE     6      66.028  38.971  47.520  1.00  0.00     0.001 A 
ATOM     59  CD1 PHE     6      64.986  38.693  48.394  1.00  0.00     0.008 A 
ENDBRANCH  53  54
ENDBRANCH  43  53
ENDBRANCH  40  43
ENDBRANCH  37  39
ENDBRANCH  34  37
ENDBRANCH  28  33
ENDBRANCH  26  28
ENDBRANCH  15  24
ENDBRANCH  12  15
ENDBRANCH  10  11
BRANCH  10  60
ATOM     60  CB  LYS     2      58.429  43.693  45.943  1.00  0.00     0.032 C 
BRANCH  60  61
ATOM     61  CG  LYS     2      59.476  43.356  44.867  1.00  0.00     0.004 C 
BRANCH  61  62
ATOM     62  CD  LYS     2      58.909  43.252  43.445  1.00  0.00     0.032 C 
BRANCH  62  63
ATOM     63  CE  LYS     2      58.646  41.785  43.082  1.00  0.00     0.206 C 
BRANCH  63  64
ATOM     64  NZ  LYS     2      57.302  41.321  43.468  1.00  0.00    -0.064 N 
ATOM     65  HZ1 LYS     2      57.380  40.458  43.969  1.00 99.99     0.275 HD
ATOM     66  HZ3 LYS     2      56.742  41.175  42.653  1.00 99.99     0.275 HD
ATOM     67  HZ2 LYS     2      56.864  41.999  44.060  1.00 99.99     0.275 HD
ENDBRANCH  63  64
ENDBRANCH  62  63
ENDBRANCH  61  62
ENDBRANCH  60  61
ENDBRANCH  10  60
ENDBRANCH   7  10
ENDBRANCH   5   6
BRANCH   5  68
ATOM     68  CB  LYS     1      63.981  43.943  47.607  1.00  0.00     0.040 C 
BRANCH  68  69
ATOM     69  CG  LYS     1      64.625  44.448  48.910  1.00  0.00     0.004 C 
BRANCH  69  70
ATOM     70  CD  LYS     1      64.928  45.954  48.920  1.00  0.00     0.032 C 
BRANCH  70  71
ATOM     71  CE  LYS     1      63.724  46.755  49.437  1.00  0.00     0.206 C 
BRANCH  71  72
ATOM     72  NZ  LYS     1      63.445  46.545  50.870  1.00  0.00    -0.064 N 
ATOM     73  HZ1 LYS     1      64.009  45.791  51.212  1.00 99.99     0.275 HD
ATOM     74  HZ2 LYS     1      63.666  47.371  51.388  1.00 99.99     0.275 HD
ATOM     75  HZ3 LYS     1      62.481  46.314  51.004  1.00 99.99     0.275 HD
ENDBRANCH  71  72
ENDBRANCH  70  71
ENDBRANCH  69  70
ENDBRANCH  68  69
ENDBRANCH   5  68
ENDBRANCH   1   5
TORSDOF 33
ENDMDL
MODEL 7
REMARK VINA RESULT:      -4.0      1.911      5.806
REMARK WARNING: 32 MAX_TORS EXCEEDED!!!
REMARK  33 active torsions:
REMARK  status: ('A' for Active; 'I' for Inactive)
REMARK    1  A    between atoms: N_1  and  CA_2 
REMARK    2  A    between atoms: CA_2  and  C_3 
REMARK    3  A    between atoms: CA_2  and  CB_5 
REMARK       I    between atoms: C_3  and  N_16 
REMARK    4  A    between atoms: CB_5  and  CG_6 
REMARK    5  A    between atoms: CG_6  and  CD_7 
REMARK    6  A    between atoms: CD_7  and  CE_8 
REMARK    7  A    between atoms: CE_8  and  NZ_9 
REMARK    8  A    between atoms: N_16  and  CA_17 
REMARK    9  A    between atoms: CA_17  and  C_18 
REMARK   10  A    between atoms: CA_17  and  CB_20 
REMARK       I    between atoms: C_18  and  N_29 
REMARK   11  A    between atoms: CB_20  and  CG_21 
REMARK   12  A    between atoms: CG_21  and  CD_22 
REMARK   13  A    between atoms: CD_22  and  CE_23 
REMARK   14  A    between atoms: CE_23  and  NZ_24 
REMARK   15  A    between atoms: N_29  and  CA_30 
REMARK   16  A    between atoms: CA_30  and  CB_33 
REMARK   17  A    between atoms: CA_30  and  C_31 
REMARK       I    between atoms: C_31  and  N_42 
REMARK   18  A    between atoms: CB_33  and  CG_34 
REMARK   19  A    between atoms: CG_34  and  CD_35 
REMARK   20  A    between atoms: CD_35  and  CE_36 
REMARK   21  A    between atoms: CE_36  and  NZ_37 
REMARK   22  A    between atoms: N_42  and  CA_43 
REMARK   23  A    between atoms: CA_43  and  CB_46 
REMARK   24  A    between atoms: CA_43  and  C_44 
REMARK       I    between atoms: C_44  and  N_51 
REMARK   25  A    between atoms: CB_46  and  CG_47 
REMARK   26  A    between atoms: N_51  and  CA_52 
REMARK   27  A    between atoms: CA_52  and  C_53 
REMARK       I    between atoms: C_53  and  N_57 
REMARK   28  A    between atoms: N_57  and  CA_58 
REMARK   29  A    between atoms: CA_58  and  C_59 
REMARK   30  A    between atoms: CA_58  and  CB_61 
REMARK       I    between atoms: C_59  and  N_69 
REMARK   31  A    between atoms: CB_61  and  CG_62 
REMARK   32  A    between atoms: N_69  and  CA_70 
REMARK   33  A    between atoms: CA_70  and  C_71 
ROOT
ATOM      1  N   LYS     1      62.580  42.674  46.170  1.00  0.00    -0.058 N 
ATOM      2  H1  LYS     1      62.322  43.214  45.370  1.00 99.99     0.276 HD
ATOM      3  H2  LYS     1      63.499  42.897  46.437  1.00 99.99     0.276 HD
ATOM      4  H3  LYS     1      62.616  41.715  45.899  1.00 99.99     0.276 HD
ENDROOT
BRANCH   1   5
ATOM      5  CA  LYS     1      61.589  42.901  47.249  1.00  0.00     0.255 C 
BRANCH   5   6
ATOM      6  C   LYS     1      60.189  43.134  46.625  1.00  0.00     0.259 C 
ATOM      7  N   LYS     2      59.092  43.191  47.400  1.00  0.00    -0.338 N 
ATOM      8  H   LYS     2      59.164  43.133  48.396  1.00 99.99     0.164 HD
ATOM      9  O   LYS     1      60.203  43.598  45.487  1.00  0.00    -0.271 OA
BRANCH   7  10
ATOM     10  CA  LYS     2      57.684  43.293  46.914  1.00  0.00     0.159 C 
BRANCH  10  11
ATOM     11  C   LYS     2      56.588  43.631  47.955  1.00  0.00     0.251 C 
ATOM     12  N   LYS     3      56.333  42.744  48.926  1.00  0.00    -0.338 N 
ATOM     13  H   LYS     3      56.760  41.841  48.928  1.00 99.99     0.164 HD
ATOM     14  O   LYS     2      56.089  44.754  47.937  1.00  0.00    -0.271 OA
BRANCH  12  15
ATOM     15  CA  LYS     3      55.371  42.971  50.034  1.00  0.00     0.159 C 
BRANCH  15  16
ATOM     16  CB  LYS     3      54.194  41.991  49.881  1.00  0.00     0.032 C 
BRANCH  16  17
ATOM     17  CG  LYS     3      54.604  40.681  49.195  1.00  0.00     0.004 C 
BRANCH  17  18
ATOM     18  CD  LYS     3      53.586  40.201  48.155  1.00  0.00     0.032 C 
BRANCH  18  19
ATOM     19  CE  LYS     3      54.307  39.838  46.853  1.00  0.00     0.206 C 
BRANCH  19  20
ATOM     20  NZ  LYS     3      53.926  38.509  46.348  1.00  0.00    -0.064 N 
ATOM     21  HZ1 LYS     3      53.086  38.213  46.804  1.00 99.99     0.275 HD
ATOM     22  HZ2 LYS     3      53.765  38.554  45.362  1.00 99.99     0.275 HD
ATOM     23  HZ3 LYS     3      54.652  37.850  46.541  1.00 99.99     0.275 HD
ENDBRANCH  19  20
ENDBRANCH  18  19
ENDBRANCH  17  18
ENDBRANCH  16  17
ENDBRANCH  15  16
BRANCH  15  24
ATOM     24  C   LYS     3      55.992  42.886  51.453  1.00  0.00     0.251 C 
ATOM     25  O   LYS     3      55.797  43.800  52.253  1.00  0.00    -0.271 OA
ATOM     26  N   LEU     4      56.943  41.968  51.635  1.00  0.00    -0.338 N 
ATOM     27  H   LEU     4      57.303  41.442  50.860  1.00 99.99     0.164 HD
BRANCH  26  28
ATOM     28  CA  LEU     4      57.661  41.708  52.907  1.00  0.00     0.159 C 
BRANCH  28  29
ATOM     29  CB  LEU     4      57.532  40.219  53.254  1.00  0.00     0.032 C 
BRANCH  29  30
ATOM     30  CG  LEU     4      56.677  39.907  54.486  1.00  0.00     0.002 C 
ATOM     31  CD2 LEU     4      55.346  40.667  54.459  1.00  0.00     0.000 C 
ATOM     32  CD1 LEU     4      57.466  40.295  55.737  1.00  0.00     0.000 C 
ENDBRANCH  29  30
ENDBRANCH  28  29
BRANCH  28  33
ATOM     33  C   LEU     4      59.160  42.087  52.945  1.00  0.00     0.251 C 
ATOM     34  N   ALA     5      60.006  41.068  53.068  1.00  0.00    -0.338 N 
ATOM     35  H   ALA     5      59.675  40.144  53.257  1.00 99.99     0.164 HD
ATOM     36  O   LEU     4      59.506  43.258  53.092  1.00  0.00    -0.271 OA
BRANCH  34  37
ATOM     37  CA  ALA     5      61.481  41.179  53.040  1.00  0.00     0.159 C 
ATOM     38  CB  ALA     5      61.979  41.097  54.487  1.00  0.00     0.034 C 
BRANCH  37  39
ATOM     39  C   ALA     5      62.157  40.098  52.166  1.00  0.00     0.251 C 
ATOM     40  N   PHE     6      62.318  40.435  50.887  1.00  0.00    -0.337 N 
ATOM     41  H   PHE     6      61.816  41.207  50.505  1.00 99.99     0.164 HD
ATOM     42  O   ALA     5      62.391  38.974  52.603  1.00  0.00    -0.271 OA
BRANCH  40  43
ATOM     43  CA  PHE     6      63.059  39.656  49.875  1.00  0.00     0.164 C 
BRANCH  43  44
ATOM     44  C   PHE     6      64.472  40.233  49.645  1.00  0.00     0.251 C 
ATOM     45  N   ALA     7      64.624  40.939  48.528  1.00  0.00    -0.336 N 
ATOM     46  H   ALA     7      63.875  41.032  47.873  1.00 99.99     0.164 HD
ATOM     47  O   PHE     6      65.393  39.986  50.419  1.00  0.00    -0.271 OA
BRANCH  45  48
ATOM     48  CA  ALA     7      65.858  41.656  48.148  1.00  0.00     0.168 C 
ATOM     49  CB  ALA     7      66.282  41.171  46.758  1.00  0.00     0.036 C 
BRANCH  48  50
ATOM     50  C   ALA     7      65.587  43.168  48.099  1.00  0.00     0.206 C 
ATOM     51  OXT ALA     7      65.295  43.629  46.974  1.00 99.99    -0.646 OA
ATOM     52  O   ALA     7      65.575  43.797  49.179  1.00 99.99    -0.646 OA
ENDBRANCH  48  50
ENDBRANCH  45  48
ENDBRANCH  43  44
BRANCH  43  53
ATOM     53  CB  PHE     6      62.224  39.680  48.587  1.00  0.00     0.056 C 
BRANCH  53  54
ATOM     54  CG  PHE     6      60.767  39.264  48.802  1.00  0.00    -0.044 A 
ATOM     55  CD2 PHE     6      60.394  37.940  48.599  1.00  0.00     0.008 A 
ATOM     56  CE2 PHE     6      59.118  37.519  48.948  1.00  0.00     0.001 A 
ATOM     57  CZ  PHE     6      58.212  38.423  49.489  1.00  0.00     0.000 A 
ATOM     58  CE1 PHE     6      58.581  39.750  49.673  1.00  0.00     0.001 A 
ATOM     59  CD1 PHE     6      59.856  40.174  49.322  1.00  0.00     0.008 A 
ENDBRANCH  53  54
ENDBRANCH  43  53
ENDBRANCH  40  43
ENDBRANCH  37  39
ENDBRANCH  34  37
ENDBRANCH  28  33
ENDBRANCH  26  28
ENDBRANCH  15  24
ENDBRANCH  12  15
ENDBRANCH  10  11
BRANCH  10  60
ATOM     60  CB  LYS     2      57.294  42.102  46.016  1.00  0.00     0.032 C 
BRANCH  60  61
ATOM     61  CG  LYS     2      57.962  40.795  46.481  1.00  0.00     0.004 C 
BRANCH  61  62
ATOM     62  CD  LYS     2      57.945  39.672  45.437  1.00  0.00     0.032 C 
BRANCH  62  63
ATOM     63  CE  LYS     2      58.618  40.138  44.139  1.00  0.00     0.206 C 
BRANCH  63  64
ATOM     64  NZ  LYS     2      60.006  40.589  44.333  1.00  0.00    -0.064 N 
ATOM     65  HZ1 LYS     2      60.063  41.573  44.155  1.00 99.99     0.275 HD
ATOM     66  HZ3 LYS     2      60.615  40.109  43.701  1.00 99.99     0.275 HD
ATOM     67  HZ2 LYS     2      60.294  40.415  45.275  1.00 99.99     0.275 HD
ENDBRANCH  63  64
ENDBRANCH  62  63
ENDBRANCH  61  62
ENDBRANCH  60  61
ENDBRANCH  10  60
ENDBRANCH   7  10
ENDBRANCH   5   6
BRANCH   5  68
ATOM     68  CB  LYS     1      62.052  43.968  48.268  1.00  0.00     0.040 C 
BRANCH  68  69
ATOM     69  CG  LYS     1      61.811  43.506  49.716  1.00  0.00     0.004 C 
BRANCH  69  70
ATOM     70  CD  LYS     1      62.506  44.376  50.776  1.00  0.00     0.032 C 
BRANCH  70  71
ATOM     71  CE  LYS     1      62.798  45.781  50.231  1.00  0.00     0.206 C 
BRANCH  71  72
ATOM     72  NZ  LYS     1      64.166  46.254  50.514  1.00  0.00    -0.064 N 
ATOM     73  HZ1 LYS     1      64.211  47.245  50.379  1.00 99.99     0.275 HD
ATOM     74  HZ2 LYS     1      64.412  46.047  51.461  1.00 99.99     0.275 HD
ATOM     75  HZ3 LYS     1      64.818  45.814  49.896  1.00 99.99     0.275 HD
ENDBRANCH  71  72
ENDBRANCH  70  71
ENDBRANCH  69  70
ENDBRANCH  68  69
ENDBRANCH   5  68
ENDBRANCH   1   5
TORSDOF 33
ENDMDL
MODEL 8
REMARK VINA RESULT:      -4.0      3.590      8.962
REMARK WARNING: 32 MAX_TORS EXCEEDED!!!
REMARK  33 active torsions:
REMARK  status: ('A' for Active; 'I' for Inactive)
REMARK    1  A    between atoms: N_1  and  CA_2 
REMARK    2  A    between atoms: CA_2  and  C_3 
REMARK    3  A    between atoms: CA_2  and  CB_5 
REMARK       I    between atoms: C_3  and  N_16 
REMARK    4  A    between atoms: CB_5  and  CG_6 
REMARK    5  A    between atoms: CG_6  and  CD_7 
REMARK    6  A    between atoms: CD_7  and  CE_8 
REMARK    7  A    between atoms: CE_8  and  NZ_9 
REMARK    8  A    between atoms: N_16  and  CA_17 
REMARK    9  A    between atoms: CA_17  and  C_18 
REMARK   10  A    between atoms: CA_17  and  CB_20 
REMARK       I    between atoms: C_18  and  N_29 
REMARK   11  A    between atoms: CB_20  and  CG_21 
REMARK   12  A    between atoms: CG_21  and  CD_22 
REMARK   13  A    between atoms: CD_22  and  CE_23 
REMARK   14  A    between atoms: CE_23  and  NZ_24 
REMARK   15  A    between atoms: N_29  and  CA_30 
REMARK   16  A    between atoms: CA_30  and  CB_33 
REMARK   17  A    between atoms: CA_30  and  C_31 
REMARK       I    between atoms: C_31  and  N_42 
REMARK   18  A    between atoms: CB_33  and  CG_34 
REMARK   19  A    between atoms: CG_34  and  CD_35 
REMARK   20  A    between atoms: CD_35  and  CE_36 
REMARK   21  A    between atoms: CE_36  and  NZ_37 
REMARK   22  A    between atoms: N_42  and  CA_43 
REMARK   23  A    between atoms: CA_43  and  CB_46 
REMARK   24  A    between atoms: CA_43  and  C_44 
REMARK       I    between atoms: C_44  and  N_51 
REMARK   25  A    between atoms: CB_46  and  CG_47 
REMARK   26  A    between atoms: N_51  and  CA_52 
REMARK   27  A    between atoms: CA_52  and  C_53 
REMARK       I    between atoms: C_53  and  N_57 
REMARK   28  A    between atoms: N_57  and  CA_58 
REMARK   29  A    between atoms: CA_58  and  C_59 
REMARK   30  A    between atoms: CA_58  and  CB_61 
REMARK       I    between atoms: C_59  and  N_69 
REMARK   31  A    between atoms: CB_61  and  CG_62 
REMARK   32  A    between atoms: N_69  and  CA_70 
REMARK   33  A    between atoms: CA_70  and  C_71 
ROOT
ATOM      1  N   LYS     1      59.690  40.516  49.227  1.00  0.00    -0.058 N 
ATOM      2  H1  LYS     1      58.903  40.789  49.779  1.00 99.99     0.276 HD
ATOM      3  H2  LYS     1      59.573  39.590  48.919  1.00 99.99     0.276 HD
ATOM      4  H3  LYS     1      60.491  40.493  49.818  1.00 99.99     0.276 HD
ENDROOT
BRANCH   1   5
ATOM      5  CA  LYS     1      59.858  41.481  48.114  1.00  0.00     0.255 C 
BRANCH   5   6
ATOM      6  C   LYS     1      60.652  42.715  48.615  1.00  0.00     0.259 C 
ATOM      7  N   LYS     2      61.235  42.711  49.827  1.00  0.00    -0.338 N 
ATOM      8  H   LYS     2      61.208  41.897  50.406  1.00 99.99     0.164 HD
ATOM      9  O   LYS     1      60.996  43.499  47.734  1.00  0.00    -0.271 OA
BRANCH   7  10
ATOM     10  CA  LYS     2      61.924  43.871  50.467  1.00  0.00     0.159 C 
BRANCH  10  11
ATOM     11  C   LYS     2      63.067  44.552  49.676  1.00  0.00     0.251 C 
ATOM     12  N   LYS     3      64.019  43.780  49.134  1.00  0.00    -0.338 N 
ATOM     13  H   LYS     3      64.056  42.799  49.317  1.00 99.99     0.164 HD
ATOM     14  O   LYS     2      62.989  45.758  49.454  1.00  0.00    -0.271 OA
BRANCH  12  15
ATOM     15  CA  LYS     3      65.125  44.289  48.283  1.00  0.00     0.159 C 
BRANCH  15  16
ATOM     16  CB  LYS     3      66.460  43.747  48.825  1.00  0.00     0.032 C 
BRANCH  16  17
ATOM     17  CG  LYS     3      66.907  42.463  48.114  1.00  0.00     0.004 C 
BRANCH  17  18
ATOM     18  CD  LYS     3      68.324  42.556  47.538  1.00  0.00     0.032 C 
BRANCH  18  19
ATOM     19  CE  LYS     3      68.298  42.234  46.040  1.00  0.00     0.206 C 
BRANCH  19  20
ATOM     20  NZ  LYS     3      68.279  43.444  45.203  1.00  0.00    -0.064 N 
ATOM     21  HZ1 LYS     3      68.201  43.176  44.241  1.00 99.99     0.275 HD
ATOM     22  HZ2 LYS     3      67.495  44.014  45.447  1.00 99.99     0.275 HD
ATOM     23  HZ3 LYS     3      69.124  43.961  45.331  1.00 99.99     0.275 HD
ENDBRANCH  19  20
ENDBRANCH  18  19
ENDBRANCH  17  18
ENDBRANCH  16  17
ENDBRANCH  15  16
BRANCH  15  24
ATOM     24  C   LYS     3      64.966  43.983  46.772  1.00  0.00     0.251 C 
ATOM     25  O   LYS     3      65.617  44.630  45.952  1.00  0.00    -0.271 OA
ATOM     26  N   LEU     4      63.919  43.235  46.419  1.00  0.00    -0.338 N 
ATOM     27  H   LEU     4      63.220  42.982  47.094  1.00 99.99     0.164 HD
BRANCH  26  28
ATOM     28  CA  LEU     4      63.583  42.813  45.037  1.00  0.00     0.159 C 
BRANCH  28  29
ATOM     29  CB  LEU     4      64.538  41.688  44.615  1.00  0.00     0.032 C 
BRANCH  29  30
ATOM     30  CG  LEU     4      65.406  41.994  43.390  1.00  0.00     0.002 C 
ATOM     31  CD2 LEU     4      64.562  42.124  42.117  1.00  0.00     0.000 C 
ATOM     32  CD1 LEU     4      66.424  40.865  43.222  1.00  0.00     0.000 C 
ENDBRANCH  29  30
ENDBRANCH  28  29
BRANCH  28  33
ATOM     33  C   LEU     4      62.133  42.335  44.793  1.00  0.00     0.251 C 
ATOM     34  N   ALA     5      61.247  43.296  44.543  1.00  0.00    -0.338 N 
ATOM     35  H   ALA     5      61.491  44.261  44.645  1.00 99.99     0.164 HD
ATOM     36  O   LEU     4      61.802  41.180  45.052  1.00  0.00    -0.271 OA
BRANCH  34  37
ATOM     37  CA  ALA     5      59.826  43.073  44.197  1.00  0.00     0.159 C 
ATOM     38  CB  ALA     5      59.009  44.193  44.849  1.00  0.00     0.034 C 
BRANCH  37  39
ATOM     39  C   ALA     5      59.571  43.026  42.673  1.00  0.00     0.251 C 
ATOM     40  N   PHE     6      59.197  41.835  42.206  1.00  0.00    -0.337 N 
ATOM     41  H   PHE     6      59.323  41.017  42.762  1.00 99.99     0.164 HD
ATOM     42  O   ALA     5      59.833  43.982  41.948  1.00  0.00    -0.271 OA
BRANCH  40  43
ATOM     43  CA  PHE     6      58.753  41.547  40.828  1.00  0.00     0.164 C 
BRANCH  43  44
ATOM     44  C   PHE     6      57.817  40.320  40.783  1.00  0.00     0.251 C 
ATOM     45  N   ALA     7      57.556  39.760  41.961  1.00  0.00    -0.336 N 
ATOM     46  H   ALA     7      57.989  40.096  42.797  1.00 99.99     0.164 HD
ATOM     47  O   PHE     6      57.410  39.870  39.715  1.00  0.00    -0.271 OA
BRANCH  45  48
ATOM     48  CA  ALA     7      56.621  38.636  42.169  1.00  0.00     0.168 C 
ATOM     49  CB  ALA     7      57.439  37.343  42.247  1.00  0.00     0.036 C 
BRANCH  48  50
ATOM     50  C   ALA     7      55.854  38.835  43.487  1.00  0.00     0.206 C 
ATOM     51  OXT ALA     7      54.774  38.211  43.582  1.00 99.99    -0.646 OA
ATOM     52  O   ALA     7      56.401  39.505  44.389  1.00 99.99    -0.646 OA
ENDBRANCH  48  50
ENDBRANCH  45  48
ENDBRANCH  43  44
BRANCH  43  53
ATOM     53  CB  PHE     6      60.016  41.322  39.985  1.00  0.00     0.056 C 
BRANCH  53  54
ATOM     54  CG  PHE     6      60.159  42.319  38.832  1.00  0.00    -0.044 A 
ATOM     55  CD2 PHE     6      61.369  42.416  38.155  1.00  0.00     0.008 A 
ATOM     56  CE2 PHE     6      61.461  43.194  37.008  1.00  0.00     0.001 A 
ATOM     57  CZ  PHE     6      60.345  43.882  36.544  1.00  0.00     0.000 A 
ATOM     58  CE1 PHE     6      59.141  43.798  37.234  1.00  0.00     0.001 A 
ATOM     59  CD1 PHE     6      59.050  43.024  38.383  1.00  0.00     0.008 A 
ENDBRANCH  53  54
ENDBRANCH  43  53
ENDBRANCH  40  43
ENDBRANCH  37  39
ENDBRANCH  34  37
ENDBRANCH  28  33
ENDBRANCH  26  28
ENDBRANCH  15  24
ENDBRANCH  12  15
ENDBRANCH  10  11
BRANCH  10  60
ATOM     60  CB  LYS     2      62.316  43.577  51.929  1.00  0.00     0.032 C 
BRANCH  60  61
ATOM     61  CG  LYS     2      62.612  42.082  52.149  1.00  0.00     0.004 C 
BRANCH  61  62
ATOM     62  CD  LYS     2      62.353  41.591  53.579  1.00  0.00     0.032 C 
BRANCH  62  63
ATOM     63  CE  LYS     2      63.591  40.874  54.131  1.00  0.00     0.206 C 
BRANCH  63  64
ATOM     64  NZ  LYS     2      63.860  39.585  53.470  1.00  0.00    -0.064 N 
ATOM     65  HZ1 LYS     2      62.997  39.187  53.156  1.00 99.99     0.275 HD
ATOM     66  HZ3 LYS     2      64.294  38.953  54.113  1.00 99.99     0.275 HD
ATOM     67  HZ2 LYS     2      64.458  39.724  52.680  1.00 99.99     0.275 HD
ENDBRANCH  63  64
ENDBRANCH  62  63
ENDBRANCH  61  62
ENDBRANCH  60  61
ENDBRANCH  10  60
ENDBRANCH   7  10
ENDBRANCH   5   6
BRANCH   5  68
ATOM     68  CB  LYS     1      58.529  41.792  47.389  1.00  0.00     0.040 C 
BRANCH  68  69
ATOM     69  CG  LYS     1      57.334  41.748  48.357  1.00  0.00     0.004 C 
BRANCH  69  70
ATOM     70  CD  LYS     1      56.608  43.092  48.522  1.00  0.00     0.032 C 
BRANCH  70  71
ATOM     71  CE  LYS     1      55.797  43.125  49.826  1.00  0.00     0.206 C 
BRANCH  71  72
ATOM     72  NZ  LYS     1      54.397  42.692  49.662  1.00  0.00    -0.064 N 
ATOM     73  HZ1 LYS     1      54.167  42.032  50.380  1.00 99.99     0.275 HD
ATOM     74  HZ2 LYS     1      53.783  43.477  49.739  1.00 99.99     0.275 HD
ATOM     75  HZ3 LYS     1      54.272  42.255  48.771  1.00 99.99     0.275 HD
ENDBRANCH  71  72
ENDBRANCH  70  71
ENDBRANCH  69  70
ENDBRANCH  68  69
ENDBRANCH   5  68
ENDBRANCH   1   5
TORSDOF 33
ENDMDL
MODEL 9
REMARK VINA RESULT:      -4.0      2.222      9.159
REMARK WARNING: 32 MAX_TORS EXCEEDED!!!
REMARK  33 active torsions:
REMARK  status: ('A' for Active; 'I' for Inactive)
REMARK    1  A    between atoms: N_1  and  CA_2 
REMARK    2  A    between atoms: CA_2  and  C_3 
REMARK    3  A    between atoms: CA_2  and  CB_5 
REMARK       I    between atoms: C_3  and  N_16 
REMARK    4  A    between atoms: CB_5  and  CG_6 
REMARK    5  A    between atoms: CG_6  and  CD_7 
REMARK    6  A    between atoms: CD_7  and  CE_8 
REMARK    7  A    between atoms: CE_8  and  NZ_9 
REMARK    8  A    between atoms: N_16  and  CA_17 
REMARK    9  A    between atoms: CA_17  and  C_18 
REMARK   10  A    between atoms: CA_17  and  CB_20 
REMARK       I    between atoms: C_18  and  N_29 
REMARK   11  A    between atoms: CB_20  and  CG_21 
REMARK   12  A    between atoms: CG_21  and  CD_22 
REMARK   13  A    between atoms: CD_22  and  CE_23 
REMARK   14  A    between atoms: CE_23  and  NZ_24 
REMARK   15  A    between atoms: N_29  and  CA_30 
REMARK   16  A    between atoms: CA_30  and  CB_33 
REMARK   17  A    between atoms: CA_30  and  C_31 
REMARK       I    between atoms: C_31  and  N_42 
REMARK   18  A    between atoms: CB_33  and  CG_34 
REMARK   19  A    between atoms: CG_34  and  CD_35 
REMARK   20  A    between atoms: CD_35  and  CE_36 
REMARK   21  A    between atoms: CE_36  and  NZ_37 
REMARK   22  A    between atoms: N_42  and  CA_43 
REMARK   23  A    between atoms: CA_43  and  CB_46 
REMARK   24  A    between atoms: CA_43  and  C_44 
REMARK       I    between atoms: C_44  and  N_51 
REMARK   25  A    between atoms: CB_46  and  CG_47 
REMARK   26  A    between atoms: N_51  and  CA_52 
REMARK   27  A    between atoms: CA_52  and  C_53 
REMARK       I    between atoms: C_53  and  N_57 
REMARK   28  A    between atoms: N_57  and  CA_58 
REMARK   29  A    between atoms: CA_58  and  C_59 
REMARK   30  A    between atoms: CA_58  and  CB_61 
REMARK       I    between atoms: C_59  and  N_69 
REMARK   31  A    between atoms: CB_61  and  CG_62 
REMARK   32  A    between atoms: N_69  and  CA_70 
REMARK   33  A    between atoms: CA_70  and  C_71 
ROOT
ATOM      1  N   LYS     1      68.934  42.668  47.311  1.00  0.00    -0.058 N 
ATOM      2  H1  LYS     1      68.635  43.017  48.198  1.00 99.99     0.276 HD
ATOM      3  H2  LYS     1      68.635  41.738  47.203  1.00 99.99     0.276 HD
ATOM      4  H3  LYS     1      69.930  42.619  47.316  1.00 99.99     0.276 HD
ENDROOT
BRANCH   1   5
ATOM      5  CA  LYS     1      68.435  43.567  46.244  1.00  0.00     0.255 C 
BRANCH   5   6
ATOM      6  C   LYS     1      66.885  43.587  46.267  1.00  0.00     0.259 C 
ATOM      7  N   LYS     2      66.188  42.476  46.564  1.00  0.00    -0.338 N 
ATOM      8  H   LYS     2      66.655  41.631  46.822  1.00 99.99     0.164 HD
ATOM      9  O   LYS     1      66.386  44.706  46.350  1.00  0.00    -0.271 OA
BRANCH   7  10
ATOM     10  CA  LYS     2      64.702  42.337  46.507  1.00  0.00     0.159 C 
BRANCH  10  11
ATOM     11  C   LYS     2      63.913  42.521  47.826  1.00  0.00     0.251 C 
ATOM     12  N   LYS     3      62.718  43.125  47.778  1.00  0.00    -0.338 N 
ATOM     13  H   LYS     3      62.382  43.541  46.934  1.00 99.99     0.164 HD
ATOM     14  O   LYS     2      64.343  41.988  48.846  1.00  0.00    -0.271 OA
BRANCH  12  15
ATOM     15  CA  LYS     3      61.819  43.295  48.948  1.00  0.00     0.159 C 
BRANCH  15  16
ATOM     16  CB  LYS     3      61.951  44.737  49.471  1.00  0.00     0.032 C 
BRANCH  16  17
ATOM     17  CG  LYS     3      63.117  44.903  50.455  1.00  0.00     0.004 C 
BRANCH  17  18
ATOM     18  CD  LYS     3      63.855  46.235  50.294  1.00  0.00     0.032 C 
BRANCH  18  19
ATOM     19  CE  LYS     3      65.077  46.046  49.389  1.00  0.00     0.206 C 
BRANCH  19  20
ATOM     20  NZ  LYS     3      65.716  44.733  49.569  1.00  0.00    -0.064 N 
ATOM     21  HZ1 LYS     3      65.256  44.061  48.988  1.00 99.99     0.275 HD
ATOM     22  HZ2 LYS     3      66.680  44.786  49.308  1.00 99.99     0.275 HD
ATOM     23  HZ3 LYS     3      65.642  44.446  50.524  1.00 99.99     0.275 HD
ENDBRANCH  19  20
ENDBRANCH  18  19
ENDBRANCH  17  18
ENDBRANCH  16  17
ENDBRANCH  15  16
BRANCH  15  24
ATOM     24  C   LYS     3      60.337  42.929  48.678  1.00  0.00     0.251 C 
ATOM     25  O   LYS     3      59.814  42.016  49.317  1.00  0.00    -0.271 OA
ATOM     26  N   LEU     4      59.790  43.425  47.566  1.00  0.00    -0.338 N 
ATOM     27  H   LEU     4      60.351  43.918  46.896  1.00 99.99     0.164 HD
BRANCH  26  28
ATOM     28  CA  LEU     4      58.391  43.212  47.121  1.00  0.00     0.159 C 
BRANCH  28  29
ATOM     29  CB  LEU     4      58.240  41.764  46.636  1.00  0.00     0.032 C 
BRANCH  29  30
ATOM     30  CG  LEU     4      57.244  41.560  45.490  1.00  0.00     0.002 C 
ATOM     31  CD2 LEU     4      56.194  40.498  45.834  1.00  0.00     0.000 C 
ATOM     32  CD1 LEU     4      58.018  41.135  44.242  1.00  0.00     0.000 C 
ENDBRANCH  29  30
ENDBRANCH  28  29
BRANCH  28  33
ATOM     33  C   LEU     4      57.284  43.492  48.164  1.00  0.00     0.251 C 
ATOM     34  N   ALA     5      56.919  42.450  48.907  1.00  0.00    -0.338 N 
ATOM     35  H   ALA     5      57.250  41.529  48.700  1.00 99.99     0.164 HD
ATOM     36  O   LEU     4      56.639  44.538  48.127  1.00  0.00    -0.271 OA
BRANCH  34  37
ATOM     37  CA  ALA     5      55.946  42.498  50.020  1.00  0.00     0.159 C 
ATOM     38  CB  ALA     5      55.246  41.137  50.082  1.00  0.00     0.034 C 
BRANCH  37  39
ATOM     39  C   ALA     5      56.593  42.844  51.380  1.00  0.00     0.251 C 
ATOM     40  N   PHE     6      57.560  42.013  51.767  1.00  0.00    -0.337 N 
ATOM     41  H   PHE     6      57.661  41.124  51.327  1.00 99.99     0.164 HD
ATOM     42  O   ALA     5      56.143  43.735  52.097  1.00  0.00    -0.271 OA
BRANCH  40  43
ATOM     43  CA  PHE     6      58.435  42.192  52.942  1.00  0.00     0.164 C 
BRANCH  43  44
ATOM     44  C   PHE     6      59.915  42.330  52.525  1.00  0.00     0.251 C 
ATOM     45  N   ALA     7      60.559  41.183  52.321  1.00  0.00    -0.336 N 
ATOM     46  H   ALA     7      60.109  40.305  52.484  1.00 99.99     0.164 HD
ATOM     47  O   PHE     6      60.457  43.430  52.459  1.00  0.00    -0.271 OA
BRANCH  45  48
ATOM     48  CA  ALA     7      61.948  41.074  51.833  1.00  0.00     0.168 C 
ATOM     49  CB  ALA     7      62.878  41.020  53.049  1.00  0.00     0.036 C 
BRANCH  48  50
ATOM     50  C   ALA     7      62.110  39.786  51.009  1.00  0.00     0.206 C 
ATOM     51  OXT ALA     7      61.058  39.329  50.510  1.00 99.99    -0.646 OA
ATOM     52  O   ALA     7      63.267  39.356  50.815  1.00 99.99    -0.646 OA
ENDBRANCH  48  50
ENDBRANCH  45  48
ENDBRANCH  43  44
BRANCH  43  53
ATOM     53  CB  PHE     6      58.218  40.977  53.855  1.00  0.00     0.056 C 
BRANCH  53  54
ATOM     54  CG  PHE     6      56.903  40.243  53.583  1.00  0.00    -0.044 A 
ATOM     55  CD2 PHE     6      56.907  39.097  52.796  1.00  0.00     0.008 A 
ATOM     56  CE2 PHE     6      55.752  38.334  52.678  1.00  0.00     0.001 A 
ATOM     57  CZ  PHE     6      54.593  38.723  53.338  1.00  0.00     0.000 A 
ATOM     58  CE1 PHE     6      54.587  39.880  54.109  1.00  0.00     0.001 A 
ATOM     59  CD1 PHE     6      55.739  40.645  54.225  1.00  0.00     0.008 A 
ENDBRANCH  53  54
ENDBRANCH  43  53
ENDBRANCH  40  43
ENDBRANCH  37  39
ENDBRANCH  34  37
ENDBRANCH  28  33
ENDBRANCH  26  28
ENDBRANCH  15  24
ENDBRANCH  12  15
ENDBRANCH  10  11
BRANCH  10  60
ATOM     60  CB  LYS     2      64.268  41.076  45.733  1.00  0.00     0.032 C 
BRANCH  60  61
ATOM     61  CG  LYS     2      63.888  41.403  44.278  1.00  0.00     0.004 C 
BRANCH  61  62
ATOM     62  CD  LYS     2      63.167  42.745  44.101  1.00  0.00     0.032 C 
BRANCH  62  63
ATOM     63  CE  LYS     2      61.721  42.518  43.641  1.00  0.00     0.206 C 
BRANCH  63  64
ATOM     64  NZ  LYS     2      60.777  43.514  44.177  1.00  0.00    -0.064 N 
ATOM     65  HZ1 LYS     2      59.933  43.495  43.639  1.00 99.99     0.275 HD
ATOM     66  HZ3 LYS     2      61.176  44.429  44.123  1.00 99.99     0.275 HD
ATOM     67  HZ2 LYS     2      60.557  43.298  45.129  1.00 99.99     0.275 HD
ENDBRANCH  63  64
ENDBRANCH  62  63
ENDBRANCH  61  62
ENDBRANCH  60  61
ENDBRANCH  10  60
ENDBRANCH   7  10
ENDBRANCH   5   6
BRANCH   5  68
ATOM     68  CB  LYS     1      69.078  43.275  44.869  1.00  0.00     0.040 C 
BRANCH  68  69
ATOM     69  CG  LYS     1      68.878  41.807  44.452  1.00  0.00     0.004 C 
BRANCH  69  70
ATOM     70  CD  LYS     1      69.409  41.474  43.050  1.00  0.00     0.032 C 
BRANCH  70  71
ATOM     71  CE  LYS     1      68.257  41.298  42.050  1.00  0.00     0.206 C 
BRANCH  71  72
ATOM     72  NZ  LYS     1      68.115  42.422  41.106  1.00  0.00    -0.064 N 
ATOM     73  HZ1 LYS     1      68.965  42.953  41.091  1.00 99.99     0.275 HD
ATOM     74  HZ2 LYS     1      67.935  42.076  40.185  1.00 99.99     0.275 HD
ATOM     75  HZ3 LYS     1      67.366  43.020  41.391  1.00 99.99     0.275 HD
ENDBRANCH  71  72
ENDBRANCH  70  71
ENDBRANCH  69  70
ENDBRANCH  68  69
ENDBRANCH   5  68
ENDBRANCH   1   5
TORSDOF 33
ENDMDL
