MODEL 1
REMARK VINA RESULT:      -3.8      0.000      0.000
REMARK WARNING: 32 MAX_TORS EXCEEDED!!!
REMARK  83 active torsions:
REMARK  status: ('A' for Active; 'I' for Inactive)
REMARK    1  A    between atoms: N_1  and  CA_2 
REMARK    2  A    between atoms: CA_2  and  C_3 
REMARK    3  A    between atoms: CA_2  and  CB_5 
REMARK       I    between atoms: C_3  and  N_20 
REMARK    4  A    between atoms: CB_5  and  CG_6 
REMARK    5  A    between atoms: CG_6  and  CD_7 
REMARK    6  A    between atoms: CD_7  and  NE_8 
REMARK       I    between atoms: NE_8  and  CZ_9 
REMARK       I    between atoms: CZ_9  and  NH2_11 
REMARK       I    between atoms: CZ_9  and  NH1_10 
REMARK    7  A    between atoms: CA_21  and  C_22 
REMARK       I    between atoms: C_22  and  N_27 
REMARK    8  A    between atoms: N_27  and  CA_28 
REMARK    9  A    between atoms: CA_28  and  CB_31 
REMARK   10  A    between atoms: CA_28  and  C_29 
REMARK       I    between atoms: C_29  and  N_44 
REMARK   11  A    between atoms: CB_31  and  CG_32 
REMARK   12  A    between atoms: CG_32  and  CD_33 
REMARK   13  A    between atoms: CD_33  and  NE_34 
REMARK       I    between atoms: NE_34  and  CZ_35 
REMARK       I    between atoms: CZ_35  and  NH1_36 
REMARK       I    between atoms: CZ_35  and  NH2_37 
REMARK   14  A    between atoms: N_44  and  CA_45 
REMARK   15  A    between atoms: CA_45  and  CB_48 
REMARK   16  A    between atoms: CA_45  and  C_46 
REMARK       I    between atoms: C_46  and  N_52 
REMARK   17  A    between atoms: CB_48  and  SG_49 
REMARK   18  A    between atoms: N_52  and  CA_53 
REMARK   19  A    between atoms: CA_53  and  C_54 
REMARK   20  A    between atoms: CA_53  and  CB_56 
REMARK       I    between atoms: C_54  and  N_68 
REMARK   21  A    between atoms: CB_56  and  CG_57 
REMARK   22  A    between atoms: N_68  and  CA_69 
REMARK   23  A    between atoms: CA_69  and  C_70 
REMARK   24  A    between atoms: CA_69  and  CB_72 
REMARK       I    between atoms: C_70  and  N_77 
REMARK   25  A    between atoms: CB_72  and  CG1_73 
REMARK   26  A    between atoms: N_77  and  CA_78 
REMARK   27  A    between atoms: CA_78  and  CB_81 
REMARK   28  A    between atoms: CA_78  and  C_79 
REMARK       I    between atoms: C_79  and  N_90 
REMARK   29  A    between atoms: CB_81  and  CG_82 
REMARK   30  A    between atoms: CG_82  and  CD_83 
REMARK   31  A    between atoms: CD_83  and  CE_84 
REMARK   32  A    between atoms: CE_84  and  NZ_85 
REMARK   33  A    between atoms: N_90  and  CA_91 
REMARK   34  A    between atoms: CA_91  and  CB_94 
REMARK   35  A    between atoms: CA_91  and  C_92 
REMARK       I    between atoms: C_92  and  N_99 
REMARK   36  A    between atoms: CB_94  and  CG1_95 
REMARK   37  A    between atoms: N_99  and  CA_100 
REMARK   38  A    between atoms: CA_100  and  CB_103 
REMARK   39  A    between atoms: CA_100  and  C_101 
REMARK       I    between atoms: C_101  and  N_112 
REMARK   40  A    between atoms: CB_103  and  CG_104 
REMARK   41  A    between atoms: CG_104  and  CD_105 
REMARK   42  A    between atoms: CD_105  and  CE_106 
REMARK   43  A    between atoms: CE_106  and  NZ_107 
REMARK   44  A    between atoms: N_112  and  CA_113 
REMARK   45  A    between atoms: CA_113  and  C_114 
REMARK   46  A    between atoms: CA_113  and  CB_116 
REMARK       I    between atoms: C_114  and  N_124 
REMARK   47  A    between atoms: CB_116  and  CG_117 
REMARK   48  A    between atoms: N_124  and  CA_125 
REMARK   49  A    between atoms: CA_125  and  C_126 
REMARK   50  A    between atoms: CA_125  and  CB_128 
REMARK       I    between atoms: C_126  and  N_141 
REMARK   51  A    between atoms: CB_128  and  CG_129 
REMARK   52  A    between atoms: CG_129  and  CD_130 
REMARK   53  A    between atoms: CD_130  and  NE_131 
REMARK       I    between atoms: NE_131  and  CZ_132 
REMARK       I    between atoms: CZ_132  and  NH1_133 
REMARK   54  A    between atoms: N_141  and  CA_142 
REMARK   55  A    between atoms: CA_142  and  C_143 
REMARK   56  A    between atoms: CA_142  and  CB_145 
REMARK       I    between atoms: C_143  and  N_149 
REMARK   57  A    between atoms: CB_145  and  SG_146 
REMARK   58  A    between atoms: N_149  and  CA_150 
REMARK   59  A    between atoms: CA_150  and  C_151 
REMARK   60  A    between atoms: CA_150  and  CB_153 
REMARK       I    between atoms: C_151  and  N_162 
REMARK   61  A    between atoms: CB_153  and  CG_154 
REMARK   62  A    between atoms: CG_154  and  CD_155 
REMARK   63  A    between atoms: CD_155  and  CE_156 
REMARK   64  A    between atoms: CE_156  and  NZ_157 
REMARK   65  A    between atoms: N_162  and  CA_163 
REMARK   66  A    between atoms: CA_163  and  C_164 
REMARK   67  A    between atoms: CA_163  and  CB_166 
REMARK       I    between atoms: C_164  and  N_170 
REMARK   68  A    between atoms: CB_166  and  OG_167 
REMARK   69  A    between atoms: N_170  and  CA_171 
REMARK   70  A    between atoms: CA_171  and  CB_174 
REMARK   71  A    between atoms: CA_171  and  C_172 
REMARK       I    between atoms: C_172  and  N_179 
REMARK   72  A    between atoms: CB_174  and  CG_175 
REMARK   73  A    between atoms: N_179  and  CA_180 
REMARK   74  A    between atoms: CA_180  and  C_181 
REMARK   75  A    between atoms: CA_180  and  CB_183 
REMARK       I    between atoms: C_181  and  N_192 
REMARK   76  A    between atoms: CB_183  and  CG_184 
REMARK   77  A    between atoms: CG_184  and  CD_185 
REMARK   78  A    between atoms: CD_185  and  CE_186 
REMARK   79  A    between atoms: CE_186  and  NZ_187 
REMARK   80  A    between atoms: N_192  and  CA_193 
REMARK   81  A    between atoms: CA_193  and  C_194 
REMARK   82  A    between atoms: CA_193  and  CB_196 
REMARK   83  A    between atoms: CB_196  and  CG_197 
ROOT
ATOM      1  N   ARG     1      55.686  37.877  37.301  1.00  0.00    -0.058 N 
ATOM      2  H1  ARG     1      54.981  37.195  37.107  1.00 99.99     0.276 HD
ATOM      3  H2  ARG     1      55.253  38.761  37.345  1.00 99.99     0.276 HD
ATOM      4  H3  ARG     1      56.314  37.929  36.541  1.00 99.99     0.276 HD
ENDROOT
BRANCH   1   5
ATOM      5  CA  ARG     1      56.342  37.505  38.586  1.00  0.00     0.255 C 
BRANCH   5   6
ATOM      6  C   ARG     1      55.358  37.812  39.738  1.00  0.00     0.262 C 
ATOM      7  N   PRO     2      55.000  36.819  40.563  1.00  0.00    -0.312 N 
ATOM      8  CA  PRO     2      54.251  37.083  41.808  1.00  0.00     0.163 C 
ATOM      9  CD  PRO     2      55.214  35.371  40.370  1.00  0.00     0.105 C 
ATOM     10  CB  PRO     2      53.850  35.702  42.326  1.00  0.00     0.034 C 
ATOM     11  CG  PRO     2      54.911  34.766  41.744  1.00  0.00     0.027 C 
ATOM     12  O   ARG     1      54.813  38.919  39.780  1.00  0.00    -0.270 OA
BRANCH   8  13
ATOM     13  C   PRO     2      55.143  37.860  42.789  1.00  0.00     0.251 C 
ATOM     14  O   PRO     2      54.663  38.718  43.527  1.00  0.00    -0.271 OA
ATOM     15  N   ARG     3      56.392  37.417  42.897  1.00  0.00    -0.338 N 
ATOM     16  H   ARG     3      56.711  36.600  42.410  1.00 99.99     0.164 HD
BRANCH  15  17
ATOM     17  CA  ARG     3      57.401  38.061  43.756  1.00  0.00     0.159 C 
BRANCH  17  18
ATOM     18  CB  ARG     3      58.521  37.064  44.102  1.00  0.00     0.034 C 
BRANCH  18  19
ATOM     19  CG  ARG     3      59.007  37.223  45.548  1.00  0.00     0.027 C 
BRANCH  19  20
ATOM     20  CD  ARG     3      60.431  36.700  45.768  1.00  0.00     0.116 C 
BRANCH  20  21
ATOM     21  NE  ARG     3      60.559  36.031  47.074  1.00  0.00    -0.212 N 
ATOM     22  CZ  ARG     3      60.917  36.604  48.227  1.00  0.00     0.666 C 
ATOM     23  NH1 ARG     3      61.223  37.894  48.310  1.00  0.00    -0.235 N 
ATOM     24  NH2 ARG     3      60.928  35.897  49.348  1.00  0.00    -0.235 N 
ATOM     25 1HH1 ARG     3      61.481  38.298  49.183  1.00 99.99     0.174 HD
ATOM     26 2HH1 ARG     3      61.186  38.452  47.482  1.00 99.99     0.174 HD
ATOM     27 1HH2 ARG     3      61.190  36.337  50.204  1.00 99.99     0.174 HD
ATOM     28 2HH2 ARG     3      60.666  34.932  49.341  1.00 99.99     0.174 HD
ATOM     29  HE  ARG     3      60.366  35.051  47.068  1.00 99.99     0.178 HD
ENDBRANCH  20  21
ENDBRANCH  19  20
ENDBRANCH  18  19
ENDBRANCH  17  18
BRANCH  17  30
ATOM     30  C   ARG     3      57.997  39.265  43.026  1.00  0.00     0.251 C 
ATOM     31  N   CYS     4      57.551  40.446  43.448  1.00  0.00    -0.337 N 
ATOM     32  H   CYS     4      56.800  40.513  44.102  1.00 99.99     0.164 HD
ATOM     33  O   ARG     3      58.779  39.114  42.085  1.00  0.00    -0.271 OA
BRANCH  31  34
ATOM     34  CA  CYS     4      58.056  41.743  42.964  1.00  0.00     0.170 C 
BRANCH  34  35
ATOM     35  CB  CYS     4      59.382  42.059  43.670  1.00  0.00     0.085 C 
BRANCH  35  36
ATOM     36  SG  CYS     4      59.525  41.422  45.381  1.00  0.00    -0.165 SA
ATOM     37  HG  CYS     4      58.217  41.357  45.612  1.00 99.99     0.102 HD
ENDBRANCH  35  36
ENDBRANCH  34  35
BRANCH  34  38
ATOM     38  C   CYS     4      58.338  41.671  41.455  1.00  0.00     0.252 C 
ATOM     39  N   TRP     5      59.620  41.756  41.114  1.00  0.00    -0.337 N 
ATOM     40  H   TRP     5      60.332  41.990  41.772  1.00 99.99     0.164 HD
ATOM     41  O   CYS     4      57.420  41.564  40.642  1.00  0.00    -0.271 OA
BRANCH  39  42
ATOM     42  CA  TRP     5      60.097  41.572  39.731  1.00  0.00     0.164 C 
BRANCH  42  43
ATOM     43  C   TRP     5      61.265  40.589  39.729  1.00  0.00     0.251 C 
ATOM     44  O   TRP     5      61.401  39.753  40.626  1.00  0.00    -0.271 OA
ATOM     45  N   ILE     6      61.930  40.547  38.576  1.00  0.00    -0.338 N 
ATOM     46  H   ILE     6      61.658  41.130  37.813  1.00 99.99     0.164 HD
BRANCH  45  47
ATOM     47  CA  ILE     6      63.092  39.672  38.329  1.00  0.00     0.159 C 
BRANCH  47  48
ATOM     48  C   ILE     6      64.399  40.297  38.854  1.00  0.00     0.251 C 
ATOM     49  N   LYS     7      65.491  39.522  38.881  1.00  0.00    -0.338 N 
ATOM     50  H   LYS     7      65.451  38.564  38.605  1.00 99.99     0.164 HD
ATOM     51  O   ILE     6      64.409  41.468  39.236  1.00  0.00    -0.271 OA
BRANCH  49  52
ATOM     52  CA  LYS     7      66.813  39.971  39.363  1.00  0.00     0.159 C 
BRANCH  52  53
ATOM     53  CB  LYS     7      67.538  40.626  38.176  1.00  0.00     0.032 C 
BRANCH  53  54
ATOM     54  CG  LYS     7      67.055  42.049  37.876  1.00  0.00     0.004 C 
BRANCH  54  55
ATOM     55  CD  LYS     7      66.871  42.255  36.372  1.00  0.00     0.032 C 
BRANCH  55  56
ATOM     56  CE  LYS     7      67.619  43.501  35.900  1.00  0.00     0.206 C 
BRANCH  56  57
ATOM     57  NZ  LYS     7      66.896  44.725  36.280  1.00  0.00    -0.064 N 
ATOM     58  HZ3 LYS     7      66.021  44.479  36.696  1.00 99.99     0.275 HD
ATOM     59  HZ2 LYS     7      66.736  45.282  35.467  1.00 99.99     0.275 HD
ATOM     60  HZ1 LYS     7      67.443  45.244  36.937  1.00 99.99     0.275 HD
ENDBRANCH  56  57
ENDBRANCH  55  56
ENDBRANCH  54  55
ENDBRANCH  53  54
ENDBRANCH  52  53
BRANCH  52  61
ATOM     61  C   LYS     7      66.717  40.896  40.601  1.00  0.00     0.251 C 
ATOM     62  O   LYS     7      67.448  41.875  40.758  1.00  0.00    -0.271 OA
ATOM     63  N   ILE     8      65.805  40.519  41.494  1.00  0.00    -0.338 N 
ATOM     64  H   ILE     8      65.193  39.748  41.281  1.00 99.99     0.164 HD
BRANCH  63  65
ATOM     65  CA  ILE     8      65.448  41.222  42.744  1.00  0.00     0.159 C 
BRANCH  65  66
ATOM     66  CB  ILE     8      63.905  41.224  42.932  1.00  0.00     0.029 C 
ATOM     67  CG2 ILE     8      63.418  40.084  43.849  1.00  0.00     0.002 C 
BRANCH  66  68
ATOM     68  CG1 ILE     8      63.402  42.610  43.375  1.00  0.00     0.002 C 
ATOM     69  CD  ILE     8      63.067  42.744  44.868  1.00  0.00     0.000 C 
ENDBRANCH  66  68
ENDBRANCH  65  66
BRANCH  65  70
ATOM     70  C   ILE     8      66.192  40.541  43.913  1.00  0.00     0.251 C 
ATOM     71  O   ILE     8      66.638  39.403  43.786  1.00  0.00    -0.271 OA
ATOM     72  N   LYS     9      66.329  41.249  45.034  1.00  0.00    -0.338 N 
ATOM     73  H   LYS     9      65.980  42.182  45.120  1.00 99.99     0.164 HD
BRANCH  72  74
ATOM     74  CA  LYS     9      67.029  40.726  46.224  1.00  0.00     0.159 C 
BRANCH  74  75
ATOM     75  CB  LYS     9      67.761  41.870  46.951  1.00  0.00     0.032 C 
BRANCH  75  76
ATOM     76  CG  LYS     9      67.848  43.189  46.180  1.00  0.00     0.004 C 
BRANCH  76  77
ATOM     77  CD  LYS     9      69.307  43.436  45.786  1.00  0.00     0.032 C 
BRANCH  77  78
ATOM     78  CE  LYS     9      69.794  42.459  44.714  1.00  0.00     0.206 C 
BRANCH  78  79
ATOM     79  NZ  LYS     9      69.074  42.682  43.453  1.00  0.00    -0.064 N 
ATOM     80  HZ3 LYS     9      68.346  42.001  43.359  1.00 99.99     0.275 HD
ATOM     81  HZ2 LYS     9      69.708  42.597  42.684  1.00 99.99     0.275 HD
ATOM     82  HZ1 LYS     9      68.672  43.598  43.453  1.00 99.99     0.275 HD
ENDBRANCH  78  79
ENDBRANCH  77  78
ENDBRANCH  76  77
ENDBRANCH  75  76
ENDBRANCH  74  75
BRANCH  74  83
ATOM     83  C   LYS     9      66.042  40.043  47.186  1.00  0.00     0.251 C 
ATOM     84  N   PHE    10      65.561  40.797  48.177  1.00  0.00    -0.337 N 
ATOM     85  H   PHE    10      65.717  41.783  48.234  1.00 99.99     0.164 HD
ATOM     86  O   LYS     9      65.724  38.861  47.046  1.00  0.00    -0.271 OA
BRANCH  84  87
ATOM     87  CA  PHE    10      64.644  40.225  49.187  1.00  0.00     0.164 C 
BRANCH  87  88
ATOM     88  C   PHE    10      63.412  41.102  49.456  1.00  0.00     0.251 C 
ATOM     89  O   PHE    10      62.307  40.826  48.987  1.00  0.00    -0.271 OA
ATOM     90  N   ARG    11      63.643  42.154  50.242  1.00  0.00    -0.338 N 
ATOM     91  H   ARG    11      64.556  42.330  50.608  1.00 99.99     0.164 HD
BRANCH  90  92
ATOM     92  CA  ARG    11      62.610  43.113  50.671  1.00  0.00     0.159 C 
BRANCH  92  93
ATOM     93  C   ARG    11      61.352  42.415  51.224  1.00  0.00     0.251 C 
ATOM     94  O   ARG    11      61.349  41.848  52.320  1.00  0.00    -0.271 OA
ATOM     95  N   CYS    12      60.267  42.493  50.455  1.00  0.00    -0.337 N 
ATOM     96  H   CYS    12      60.231  43.116  49.670  1.00 99.99     0.164 HD
BRANCH  95  97
ATOM     97  CA  CYS    12      59.009  41.828  50.830  1.00  0.00     0.170 C 
BRANCH  97  98
ATOM     98  C   CYS    12      57.957  41.816  49.715  1.00  0.00     0.252 C 
ATOM     99  O   CYS    12      57.667  42.835  49.088  1.00  0.00    -0.271 OA
ATOM    100  N   LYS    13      57.538  40.587  49.396  1.00  0.00    -0.337 N 
ATOM    101  H   LYS    13      58.057  39.796  49.713  1.00 99.99     0.164 HD
BRANCH 100 102
ATOM    102  CA  LYS    13      56.424  40.301  48.477  1.00  0.00     0.159 C 
BRANCH 102 103
ATOM    103  C   LYS    13      55.007  40.552  49.025  1.00  0.00     0.251 C 
ATOM    104  O   LYS    13      54.376  41.540  48.651  1.00  0.00    -0.271 OA
ATOM    105  N   SER    14      54.550  39.736  49.979  1.00  0.00    -0.336 N 
ATOM    106  H   SER    14      55.080  38.972  50.346  1.00 99.99     0.164 HD
BRANCH 105 107
ATOM    107  CA  SER    14      53.164  39.777  50.493  1.00  0.00     0.189 C 
BRANCH 107 108
ATOM    108  C   SER    14      52.946  39.256  51.926  1.00  0.00     0.253 C 
ATOM    109  O   SER    14      51.825  39.234  52.439  1.00  0.00    -0.270 OA
ATOM    110  N   LEU    15      54.043  38.899  52.590  1.00  0.00    -0.337 N 
ATOM    111  H   LEU    15      54.945  38.914  52.161  1.00 99.99     0.164 HD
BRANCH 110 112
ATOM    112  CA  LEU    15      54.053  38.587  54.030  1.00  0.00     0.159 C 
BRANCH 112 113
ATOM    113  CB  LEU    15      54.452  37.132  54.317  1.00  0.00     0.032 C 
BRANCH 113 114
ATOM    114  CG  LEU    15      54.773  36.308  53.068  1.00  0.00     0.002 C 
ATOM    115  CD2 LEU    15      53.691  35.255  52.796  1.00  0.00     0.000 C 
ATOM    116  CD1 LEU    15      56.122  35.616  53.271  1.00  0.00     0.000 C 
ENDBRANCH 113 114
ENDBRANCH 112 113
BRANCH 112 117
ATOM    117  C   LEU    15      55.046  39.496  54.744  1.00  0.00     0.251 C 
ATOM    118  N   LYS    16      56.238  38.948  54.946  1.00  0.00    -0.338 N 
ATOM    119  H   LYS    16      56.467  38.032  54.619  1.00 99.99     0.164 HD
ATOM    120  O   LEU    15      54.743  40.653  55.042  1.00  0.00    -0.271 OA
BRANCH 118 121
ATOM    121  CA  LYS    16      57.346  39.675  55.566  1.00  0.00     0.159 C 
BRANCH 121 122
ATOM    122  C   LYS    16      58.566  39.652  54.636  1.00  0.00     0.251 C 
ATOM    123  O   LYS    16      59.540  40.385  54.808  1.00  0.00    -0.271 OA
ATOM    124  N   PHE    17      58.532  38.611  53.821  1.00  0.00    -0.336 N 
ATOM    125  H   PHE    17      57.896  37.856  53.988  1.00 99.99     0.164 HD
BRANCH 124 126
ATOM    126  CA  PHE    17      59.358  38.430  52.620  1.00  0.00     0.172 C 
BRANCH 126 127
ATOM    127  C   PHE    17      58.366  38.212  51.456  1.00  0.00     0.207 C 
ATOM    128  O   PHE    17      58.845  38.014  50.320  1.00 99.99    -0.646 OA
ATOM    129  OXT PHE    17      57.186  38.573  51.694  1.00 99.99    -0.646 OA
ENDBRANCH 126 127
BRANCH 126 130
ATOM    130  CB  PHE    17      60.195  37.182  52.908  1.00  0.00     0.058 C 
BRANCH 130 131
ATOM    131  CG  PHE    17      61.602  37.454  53.451  1.00  0.00    -0.044 A 
ATOM    132  CD1 PHE    17      62.167  38.711  53.301  1.00  0.00     0.008 A 
ATOM    133  CE1 PHE    17      63.329  39.035  53.985  1.00  0.00     0.001 A 
ATOM    134  CZ  PHE    17      63.922  38.101  54.835  1.00  0.00     0.000 A 
ATOM    135  CE2 PHE    17      63.353  36.834  54.976  1.00  0.00     0.001 A 
ATOM    136  CD2 PHE    17      62.194  36.515  54.278  1.00  0.00     0.008 A 
ENDBRANCH 130 131
ENDBRANCH 126 130
ENDBRANCH 124 126
ENDBRANCH 121 122
BRANCH 121 137
ATOM    137  CB  LYS    16      57.687  39.040  56.920  1.00  0.00     0.032 C 
BRANCH 137 138
ATOM    138  CG  LYS    16      57.241  39.940  58.075  1.00  0.00     0.004 C 
BRANCH 138 139
ATOM    139  CD  LYS    16      58.416  40.580  58.809  1.00  0.00     0.032 C 
BRANCH 139 140
ATOM    140  CE  LYS    16      59.710  39.897  58.364  1.00  0.00     0.206 C 
BRANCH 140 141
ATOM    141  NZ  LYS    16      60.865  40.787  58.534  1.00  0.00    -0.064 N 
ATOM    142  HZ2 LYS    16      60.679  41.659  58.081  1.00 99.99     0.275 HD
ATOM    143  HZ1 LYS    16      61.671  40.362  58.122  1.00 99.99     0.275 HD
ATOM    144  HZ3 LYS    16      61.028  40.940  59.508  1.00 99.99     0.275 HD
ENDBRANCH 140 141
ENDBRANCH 139 140
ENDBRANCH 138 139
ENDBRANCH 137 138
ENDBRANCH 121 137
ENDBRANCH 118 121
ENDBRANCH 112 117
ENDBRANCH 110 112
ENDBRANCH 107 108
BRANCH 107 145
ATOM    145  CB  SER    14      52.255  39.031  49.507  1.00  0.00     0.169 C 
BRANCH 145 146
ATOM    146  OG  SER    14      51.236  39.913  49.021  1.00  0.00    -0.380 OA
ATOM    147  HG  SER    14      50.344  39.474  49.152  1.00 99.99     0.211 HD
ENDBRANCH 145 146
ENDBRANCH 107 145
ENDBRANCH 105 107
ENDBRANCH 102 103
BRANCH 102 148
ATOM    148  CB  LYS    13      56.526  38.877  47.894  1.00  0.00     0.032 C 
BRANCH 148 149
ATOM    149  CG  LYS    13      55.505  38.619  46.776  1.00  0.00     0.004 C 
BRANCH 149 150
ATOM    150  CD  LYS    13      55.223  37.122  46.604  1.00  0.00     0.032 C 
BRANCH 150 151
ATOM    151  CE  LYS    13      53.873  36.728  47.201  1.00  0.00     0.206 C 
BRANCH 151 152
ATOM    152  NZ  LYS    13      52.783  37.254  46.364  1.00  0.00    -0.064 N 
ATOM    153  HZ1 LYS    13      51.940  36.754  46.555  1.00 99.99     0.275 HD
ATOM    154  HZ2 LYS    13      52.654  38.227  46.550  1.00 99.99     0.275 HD
ATOM    155  HZ3 LYS    13      53.032  37.130  45.401  1.00 99.99     0.275 HD
ENDBRANCH 151 152
ENDBRANCH 150 151
ENDBRANCH 149 150
ENDBRANCH 148 149
ENDBRANCH 102 148
ENDBRANCH 100 102
ENDBRANCH  97  98
BRANCH  97 156
ATOM    156  CB  CYS    12      58.415  42.465  52.092  1.00  0.00     0.085 C 
BRANCH 156 157
ATOM    157  SG  CYS    12      56.658  42.008  52.320  1.00  0.00    -0.165 SA
ATOM    158  HG  CYS    12      56.201  42.632  51.240  1.00 99.99     0.102 HD
ENDBRANCH 156 157
ENDBRANCH  97 156
ENDBRANCH  95  97
ENDBRANCH  92  93
BRANCH  92 159
ATOM    159  CB  ARG    11      62.281  44.016  49.472  1.00  0.00     0.034 C 
BRANCH 159 160
ATOM    160  CG  ARG    11      62.501  45.500  49.773  1.00  0.00     0.027 C 
BRANCH 160 161
ATOM    161  CD  ARG    11      63.871  45.712  50.420  1.00  0.00     0.116 C 
BRANCH 161 162
ATOM    162  NE  ARG    11      64.816  46.221  49.412  1.00  0.00    -0.212 N 
ATOM    163  HE  ARG    11      64.624  47.141  49.082  1.00 99.99     0.178 HD
ATOM    164  CZ  ARG    11      65.876  45.572  48.914  1.00  0.00     0.666 C 
ATOM    165  NH1 ARG    11      66.194  44.340  49.294  1.00  0.00    -0.235 N 
ATOM    166  NH2 ARG    11      66.643  46.151  48.002  1.00  0.00    -0.235 N 
ATOM    167 2HH1 ARG    11      65.615  43.878  49.967  1.00 99.99     0.174 HD
ATOM    168 1HH1 ARG    11      66.988  43.879  48.908  1.00 99.99     0.174 HD
ATOM    169 1HH2 ARG    11      67.429  45.657  47.637  1.00 99.99     0.174 HD
ATOM    170 2HH2 ARG    11      66.437  47.072  47.675  1.00 99.99     0.174 HD
ENDBRANCH 161 162
ENDBRANCH 160 161
ENDBRANCH 159 160
ENDBRANCH  92 159
ENDBRANCH  90  92
ENDBRANCH  87  88
BRANCH  87 171
ATOM    171  CB  PHE    10      65.387  39.844  50.476  1.00  0.00     0.056 C 
BRANCH 171 172
ATOM    172  CG  PHE    10      65.210  38.383  50.931  1.00  0.00    -0.044 A 
ATOM    173  CD2 PHE    10      64.167  37.615  50.450  1.00  0.00     0.008 A 
ATOM    174  CE2 PHE    10      64.024  36.297  50.856  1.00  0.00     0.001 A 
ATOM    175  CZ  PHE    10      64.938  35.740  51.752  1.00  0.00     0.000 A 
ATOM    176  CE1 PHE    10      65.979  36.527  52.250  1.00  0.00     0.001 A 
ATOM    177  CD1 PHE    10      66.114  37.845  51.831  1.00  0.00     0.008 A 
ENDBRANCH 171 172
ENDBRANCH  87 171
ENDBRANCH  84  87
ENDBRANCH  74  83
ENDBRANCH  72  74
ENDBRANCH  65  70
ENDBRANCH  63  65
ENDBRANCH  52  61
ENDBRANCH  49  52
ENDBRANCH  47  48
BRANCH  47 178
ATOM    178  CB  ILE     6      63.158  39.285  36.833  1.00  0.00     0.029 C 
ATOM    179  CG2 ILE     6      61.780  38.769  36.389  1.00  0.00     0.002 C 
BRANCH 178 180
ATOM    180  CG1 ILE     6      63.691  40.431  35.953  1.00  0.00     0.002 C 
ATOM    181  CD  ILE     6      62.624  41.138  35.108  1.00  0.00     0.000 C 
ENDBRANCH 178 180
ENDBRANCH  47 178
ENDBRANCH  45  47
ENDBRANCH  42  43
BRANCH  42 182
ATOM    182  CB  TRP     5      60.540  42.912  39.128  1.00  0.00     0.059 C 
BRANCH 182 183
ATOM    183  CG  TRP     5      59.872  43.296  37.799  1.00  0.00    -0.016 A 
ATOM    184  CD1 TRP     5      58.579  43.259  37.476  1.00  0.00     0.097 A 
ATOM    185  NE1 TRP     5      58.383  43.880  36.313  1.00  0.00    -0.365 N 
ATOM    186  CE2 TRP     5      59.553  44.314  35.846  1.00  0.00     0.042 A 
ATOM    187  HE1 TRP     5      57.491  44.048  35.897  1.00 99.99     0.165 HD
ATOM    188  CD2 TRP     5      60.522  43.946  36.764  1.00  0.00    -0.001 A 
ATOM    189  CZ2 TRP     5      59.902  45.080  34.741  1.00  0.00     0.030 A 
ATOM    190  CE3 TRP     5      61.843  44.334  36.591  1.00  0.00     0.014 A 
ATOM    191  CZ3 TRP     5      62.194  45.113  35.492  1.00  0.00     0.001 A 
ATOM    192  CH2 TRP     5      61.220  45.480  34.566  1.00  0.00     0.002 A 
ENDBRANCH 182 183
ENDBRANCH  42 182
ENDBRANCH  39  42
ENDBRANCH  34  38
ENDBRANCH  31  34
ENDBRANCH  17  30
ENDBRANCH  15  17
ENDBRANCH   8  13
ENDBRANCH   5   6
BRANCH   5 193
ATOM    193  CB  ARG     1      57.645  38.308  38.781  1.00  0.00     0.042 C 
BRANCH 193 194
ATOM    194  CG  ARG     1      58.947  37.502  38.608  1.00  0.00     0.027 C 
BRANCH 194 195
ATOM    195  CD  ARG     1      59.174  36.492  39.743  1.00  0.00     0.116 C 
BRANCH 195 196
ATOM    196  NE  ARG     1      60.109  37.024  40.756  1.00  0.00    -0.212 N 
ATOM    197  HE  ARG     1      59.953  37.974  41.019  1.00 99.99     0.178 HD
ATOM    198  CZ  ARG     1      61.138  36.377  41.328  1.00  0.00     0.666 C 
ATOM    199  NH2 ARG     1      61.914  36.985  42.215  1.00  0.00    -0.235 N 
ATOM    200  NH1 ARG     1      61.433  35.116  41.034  1.00  0.00    -0.235 N 
ATOM    201 2HH2 ARG     1      61.754  37.938  42.469  1.00 99.99     0.174 HD
ATOM    202 1HH2 ARG     1      62.672  36.484  42.630  1.00 99.99     0.174 HD
ATOM    203 1HH1 ARG     1      62.201  34.661  41.478  1.00 99.99     0.174 HD
ATOM    204 2HH1 ARG     1      60.874  34.630  40.364  1.00 99.99     0.174 HD
ENDBRANCH 195 196
ENDBRANCH 194 195
ENDBRANCH 193 194
ENDBRANCH   5 193
ENDBRANCH   1   5
TORSDOF 83
ENDMDL
MODEL 2
REMARK VINA RESULT:      -3.7      2.121      3.473
REMARK WARNING: 32 MAX_TORS EXCEEDED!!!
REMARK  83 active torsions:
REMARK  status: ('A' for Active; 'I' for Inactive)
REMARK    1  A    between atoms: N_1  and  CA_2 
REMARK    2  A    between atoms: CA_2  and  C_3 
REMARK    3  A    between atoms: CA_2  and  CB_5 
REMARK       I    between atoms: C_3  and  N_20 
REMARK    4  A    between atoms: CB_5  and  CG_6 
REMARK    5  A    between atoms: CG_6  and  CD_7 
REMARK    6  A    between atoms: CD_7  and  NE_8 
REMARK       I    between atoms: NE_8  and  CZ_9 
REMARK       I    between atoms: CZ_9  and  NH2_11 
REMARK       I    between atoms: CZ_9  and  NH1_10 
REMARK    7  A    between atoms: CA_21  and  C_22 
REMARK       I    between atoms: C_22  and  N_27 
REMARK    8  A    between atoms: N_27  and  CA_28 
REMARK    9  A    between atoms: CA_28  and  CB_31 
REMARK   10  A    between atoms: CA_28  and  C_29 
REMARK       I    between atoms: C_29  and  N_44 
REMARK   11  A    between atoms: CB_31  and  CG_32 
REMARK   12  A    between atoms: CG_32  and  CD_33 
REMARK   13  A    between atoms: CD_33  and  NE_34 
REMARK       I    between atoms: NE_34  and  CZ_35 
REMARK       I    between atoms: CZ_35  and  NH1_36 
REMARK       I    between atoms: CZ_35  and  NH2_37 
REMARK   14  A    between atoms: N_44  and  CA_45 
REMARK   15  A    between atoms: CA_45  and  CB_48 
REMARK   16  A    between atoms: CA_45  and  C_46 
REMARK       I    between atoms: C_46  and  N_52 
REMARK   17  A    between atoms: CB_48  and  SG_49 
REMARK   18  A    between atoms: N_52  and  CA_53 
REMARK   19  A    between atoms: CA_53  and  C_54 
REMARK   20  A    between atoms: CA_53  and  CB_56 
REMARK       I    between atoms: C_54  and  N_68 
REMARK   21  A    between atoms: CB_56  and  CG_57 
REMARK   22  A    between atoms: N_68  and  CA_69 
REMARK   23  A    between atoms: CA_69  and  C_70 
REMARK   24  A    between atoms: CA_69  and  CB_72 
REMARK       I    between atoms: C_70  and  N_77 
REMARK   25  A    between atoms: CB_72  and  CG1_73 
REMARK   26  A    between atoms: N_77  and  CA_78 
REMARK   27  A    between atoms: CA_78  and  CB_81 
REMARK   28  A    between atoms: CA_78  and  C_79 
REMARK       I    between atoms: C_79  and  N_90 
REMARK   29  A    between atoms: CB_81  and  CG_82 
REMARK   30  A    between atoms: CG_82  and  CD_83 
REMARK   31  A    between atoms: CD_83  and  CE_84 
REMARK   32  A    between atoms: CE_84  and  NZ_85 
REMARK   33  A    between atoms: N_90  and  CA_91 
REMARK   34  A    between atoms: CA_91  and  CB_94 
REMARK   35  A    between atoms: CA_91  and  C_92 
REMARK       I    between atoms: C_92  and  N_99 
REMARK   36  A    between atoms: CB_94  and  CG1_95 
REMARK   37  A    between atoms: N_99  and  CA_100 
REMARK   38  A    between atoms: CA_100  and  CB_103 
REMARK   39  A    between atoms: CA_100  and  C_101 
REMARK       I    between atoms: C_101  and  N_112 
REMARK   40  A    between atoms: CB_103  and  CG_104 
REMARK   41  A    between atoms: CG_104  and  CD_105 
REMARK   42  A    between atoms: CD_105  and  CE_106 
REMARK   43  A    between atoms: CE_106  and  NZ_107 
REMARK   44  A    between atoms: N_112  and  CA_113 
REMARK   45  A    between atoms: CA_113  and  C_114 
REMARK   46  A    between atoms: CA_113  and  CB_116 
REMARK       I    between atoms: C_114  and  N_124 
REMARK   47  A    between atoms: CB_116  and  CG_117 
REMARK   48  A    between atoms: N_124  and  CA_125 
REMARK   49  A    between atoms: CA_125  and  C_126 
REMARK   50  A    between atoms: CA_125  and  CB_128 
REMARK       I    between atoms: C_126  and  N_141 
REMARK   51  A    between atoms: CB_128  and  CG_129 
REMARK   52  A    between atoms: CG_129  and  CD_130 
REMARK   53  A    between atoms: CD_130  and  NE_131 
REMARK       I    between atoms: NE_131  and  CZ_132 
REMARK       I    between atoms: CZ_132  and  NH1_133 
REMARK   54  A    between atoms: N_141  and  CA_142 
REMARK   55  A    between atoms: CA_142  and  C_143 
REMARK   56  A    between atoms: CA_142  and  CB_145 
REMARK       I    between atoms: C_143  and  N_149 
REMARK   57  A    between atoms: CB_145  and  SG_146 
REMARK   58  A    between atoms: N_149  and  CA_150 
REMARK   59  A    between atoms: CA_150  and  C_151 
REMARK   60  A    between atoms: CA_150  and  CB_153 
REMARK       I    between atoms: C_151  and  N_162 
REMARK   61  A    between atoms: CB_153  and  CG_154 
REMARK   62  A    between atoms: CG_154  and  CD_155 
REMARK   63  A    between atoms: CD_155  and  CE_156 
REMARK   64  A    between atoms: CE_156  and  NZ_157 
REMARK   65  A    between atoms: N_162  and  CA_163 
REMARK   66  A    between atoms: CA_163  and  C_164 
REMARK   67  A    between atoms: CA_163  and  CB_166 
REMARK       I    between atoms: C_164  and  N_170 
REMARK   68  A    between atoms: CB_166  and  OG_167 
REMARK   69  A    between atoms: N_170  and  CA_171 
REMARK   70  A    between atoms: CA_171  and  CB_174 
REMARK   71  A    between atoms: CA_171  and  C_172 
REMARK       I    between atoms: C_172  and  N_179 
REMARK   72  A    between atoms: CB_174  and  CG_175 
REMARK   73  A    between atoms: N_179  and  CA_180 
REMARK   74  A    between atoms: CA_180  and  C_181 
REMARK   75  A    between atoms: CA_180  and  CB_183 
REMARK       I    between atoms: C_181  and  N_192 
REMARK   76  A    between atoms: CB_183  and  CG_184 
REMARK   77  A    between atoms: CG_184  and  CD_185 
REMARK   78  A    between atoms: CD_185  and  CE_186 
REMARK   79  A    between atoms: CE_186  and  NZ_187 
REMARK   80  A    between atoms: N_192  and  CA_193 
REMARK   81  A    between atoms: CA_193  and  C_194 
REMARK   82  A    between atoms: CA_193  and  CB_196 
REMARK   83  A    between atoms: CB_196  and  CG_197 
ROOT
ATOM      1  N   ARG     1      58.034  38.612  38.730  1.00  0.00    -0.058 N 
ATOM      2  H1  ARG     1      58.282  39.575  38.629  1.00 99.99     0.276 HD
ATOM      3  H2  ARG     1      58.356  38.304  39.608  1.00 99.99     0.276 HD
ATOM      4  H3  ARG     1      58.525  38.072  38.066  1.00 99.99     0.276 HD
ENDROOT
BRANCH   1   5
ATOM      5  CA  ARG     1      56.553  38.505  38.601  1.00  0.00     0.255 C 
BRANCH   5   6
ATOM      6  C   ARG     1      55.971  38.158  39.990  1.00  0.00     0.262 C 
ATOM      7  N   PRO     2      56.444  37.087  40.640  1.00  0.00    -0.312 N 
ATOM      8  CA  PRO     2      56.102  36.828  42.052  1.00  0.00     0.163 C 
ATOM      9  CD  PRO     2      57.288  36.006  40.093  1.00  0.00     0.105 C 
ATOM     10  CB  PRO     2      56.641  35.425  42.338  1.00  0.00     0.034 C 
ATOM     11  CG  PRO     2      57.783  35.258  41.333  1.00  0.00     0.027 C 
ATOM     12  O   ARG     1      54.986  38.781  40.398  1.00  0.00    -0.270 OA
BRANCH   8  13
ATOM     13  C   PRO     2      56.734  37.909  42.942  1.00  0.00     0.251 C 
ATOM     14  O   PRO     2      56.028  38.697  43.569  1.00  0.00    -0.271 OA
ATOM     15  N   ARG     3      58.049  37.810  43.112  1.00  0.00    -0.338 N 
ATOM     16  H   ARG     3      58.580  37.051  42.727  1.00 99.99     0.164 HD
BRANCH  15  17
ATOM     17  CA  ARG     3      58.834  38.780  43.896  1.00  0.00     0.159 C 
BRANCH  17  18
ATOM     18  CB  ARG     3      60.058  38.092  44.525  1.00  0.00     0.034 C 
BRANCH  18  19
ATOM     19  CG  ARG     3      61.089  39.105  45.038  1.00  0.00     0.027 C 
BRANCH  19  20
ATOM     20  CD  ARG     3      62.333  38.448  45.645  1.00  0.00     0.116 C 
BRANCH  20  21
ATOM     21  NE  ARG     3      63.237  37.944  44.596  1.00  0.00    -0.212 N 
ATOM     22  CZ  ARG     3      63.435  36.664  44.266  1.00  0.00     0.666 C 
ATOM     23  NH1 ARG     3      62.817  35.669  44.894  1.00  0.00    -0.235 N 
ATOM     24  NH2 ARG     3      64.229  36.352  43.253  1.00  0.00    -0.235 N 
ATOM     25 1HH1 ARG     3      62.977  34.724  44.625  1.00 99.99     0.174 HD
ATOM     26 2HH1 ARG     3      62.186  35.887  45.637  1.00 99.99     0.174 HD
ATOM     27 1HH2 ARG     3      64.364  35.393  43.012  1.00 99.99     0.174 HD
ATOM     28 2HH2 ARG     3      64.684  37.069  42.726  1.00 99.99     0.174 HD
ATOM     29  HE  ARG     3      63.749  38.647  44.106  1.00 99.99     0.178 HD
ENDBRANCH  20  21
ENDBRANCH  19  20
ENDBRANCH  18  19
ENDBRANCH  17  18
BRANCH  17  30
ATOM     30  C   ARG     3      59.299  39.915  42.984  1.00  0.00     0.251 C 
ATOM     31  N   CYS     4      58.715  41.088  43.216  1.00  0.00    -0.337 N 
ATOM     32  H   CYS     4      57.951  41.170  43.854  1.00 99.99     0.164 HD
ATOM     33  O   ARG     3      60.106  39.709  42.075  1.00  0.00    -0.271 OA
BRANCH  31  34
ATOM     34  CA  CYS     4      59.076  42.343  42.532  1.00  0.00     0.170 C 
BRANCH  34  35
ATOM     35  CB  CYS     4      60.531  42.696  42.869  1.00  0.00     0.085 C 
BRANCH  35  36
ATOM     36  SG  CYS     4      60.836  43.164  44.612  1.00  0.00    -0.165 SA
ATOM     37  HG  CYS     4      59.555  43.302  44.943  1.00 99.99     0.102 HD
ENDBRANCH  35  36
ENDBRANCH  34  35
BRANCH  34  38
ATOM     38  C   CYS     4      58.981  42.162  41.009  1.00  0.00     0.252 C 
ATOM     39  N   TRP     5      60.141  42.195  40.362  1.00  0.00    -0.337 N 
ATOM     40  H   TRP     5      60.993  42.458  40.809  1.00 99.99     0.164 HD
ATOM     41  O   CYS     4      57.892  42.018  40.453  1.00  0.00    -0.271 OA
BRANCH  39  42
ATOM     42  CA  TRP     5      60.266  41.906  38.922  1.00  0.00     0.164 C 
BRANCH  42  43
ATOM     43  C   TRP     5      61.267  40.771  38.722  1.00  0.00     0.251 C 
ATOM     44  O   TRP     5      60.960  39.598  38.949  1.00  0.00    -0.271 OA
ATOM     45  N   ILE     6      62.358  41.130  38.049  1.00  0.00    -0.338 N 
ATOM     46  H   ILE     6      62.472  42.069  37.731  1.00 99.99     0.164 HD
BRANCH  45  47
ATOM     47  CA  ILE     6      63.465  40.208  37.727  1.00  0.00     0.159 C 
BRANCH  47  48
ATOM     48  C   ILE     6      64.820  40.748  38.225  1.00  0.00     0.251 C 
ATOM     49  N   LYS     7      65.754  39.854  38.577  1.00  0.00    -0.338 N 
ATOM     50  H   LYS     7      65.566  38.874  38.550  1.00 99.99     0.164 HD
ATOM     51  O   ILE     6      65.008  41.963  38.297  1.00  0.00    -0.271 OA
BRANCH  49  52
ATOM     52  CA  LYS     7      67.095  40.212  39.081  1.00  0.00     0.159 C 
BRANCH  52  53
ATOM     53  CB  LYS     7      67.827  40.959  37.954  1.00  0.00     0.032 C 
BRANCH  53  54
ATOM     54  CG  LYS     7      68.885  40.107  37.245  1.00  0.00     0.004 C 
BRANCH  54  55
ATOM     55  CD  LYS     7      69.479  40.859  36.053  1.00  0.00     0.032 C 
BRANCH  55  56
ATOM     56  CE  LYS     7      70.826  40.258  35.649  1.00  0.00     0.206 C 
BRANCH  56  57
ATOM     57  NZ  LYS     7      71.098  39.022  36.400  1.00  0.00    -0.064 N 
ATOM     58  HZ3 LYS     7      72.081  38.842  36.399  1.00 99.99     0.275 HD
ATOM     59  HZ2 LYS     7      70.618  38.260  35.970  1.00 99.99     0.275 HD
ATOM     60  HZ1 LYS     7      70.780  39.129  37.342  1.00 99.99     0.275 HD
ENDBRANCH  56  57
ENDBRANCH  55  56
ENDBRANCH  54  55
ENDBRANCH  53  54
ENDBRANCH  52  53
BRANCH  52  61
ATOM     61  C   LYS     7      67.043  41.013  40.405  1.00  0.00     0.251 C 
ATOM     62  O   LYS     7      67.680  42.053  40.579  1.00  0.00    -0.271 OA
ATOM     63  N   ILE     8      66.283  40.459  41.347  1.00  0.00    -0.338 N 
ATOM     64  H   ILE     8      65.735  39.644  41.126  1.00 99.99     0.164 HD
BRANCH  63  65
ATOM     65  CA  ILE     8      65.998  41.010  42.690  1.00  0.00     0.159 C 
BRANCH  65  66
ATOM     66  CB  ILE     8      64.537  41.534  42.751  1.00  0.00     0.029 C 
ATOM     67  CG2 ILE     8      63.589  40.761  41.811  1.00  0.00     0.002 C 
BRANCH  66  68
ATOM     68  CG1 ILE     8      64.029  41.595  44.203  1.00  0.00     0.002 C 
ATOM     69  CD  ILE     8      64.456  42.837  44.998  1.00  0.00     0.000 C 
ENDBRANCH  66  68
ENDBRANCH  65  66
BRANCH  65  70
ATOM     70  C   ILE     8      66.284  39.910  43.735  1.00  0.00     0.251 C 
ATOM     71  O   ILE     8      66.096  38.727  43.459  1.00  0.00    -0.271 OA
ATOM     72  N   LYS     9      66.745  40.310  44.919  1.00  0.00    -0.338 N 
ATOM     73  H   LYS     9      66.913  41.273  45.127  1.00 99.99     0.164 HD
BRANCH  72  74
ATOM     74  CA  LYS     9      67.072  39.365  46.006  1.00  0.00     0.159 C 
BRANCH  74  75
ATOM     75  CB  LYS     9      68.275  39.886  46.814  1.00  0.00     0.032 C 
BRANCH  75  76
ATOM     76  CG  LYS     9      69.434  38.899  46.976  1.00  0.00     0.004 C 
BRANCH  76  77
ATOM     77  CD  LYS     9      69.127  37.638  46.164  1.00  0.00     0.032 C 
BRANCH  77  78
ATOM     78  CE  LYS     9      69.992  37.534  44.905  1.00  0.00     0.206 C 
BRANCH  78  79
ATOM     79  NZ  LYS     9      69.162  37.671  43.701  1.00  0.00    -0.064 N 
ATOM     80  HZ3 LYS     9      69.643  38.233  43.026  1.00 99.99     0.275 HD
ATOM     81  HZ2 LYS     9      68.295  38.109  43.938  1.00 99.99     0.275 HD
ATOM     82  HZ1 LYS     9      68.982  36.767  43.311  1.00 99.99     0.275 HD
ENDBRANCH  78  79
ENDBRANCH  77  78
ENDBRANCH  76  77
ENDBRANCH  75  76
ENDBRANCH  74  75
BRANCH  74  83
ATOM     83  C   LYS     9      65.865  39.162  46.938  1.00  0.00     0.251 C 
ATOM     84  N   PHE    10      65.519  40.203  47.698  1.00  0.00    -0.337 N 
ATOM     85  H   PHE    10      65.925  41.112  47.590  1.00 99.99     0.164 HD
ATOM     86  O   LYS     9      65.260  38.089  46.980  1.00  0.00    -0.271 OA
BRANCH  84  87
ATOM     87  CA  PHE    10      64.406  40.100  48.666  1.00  0.00     0.164 C 
BRANCH  87  88
ATOM     88  C   PHE    10      63.399  41.254  48.561  1.00  0.00     0.251 C 
ATOM     89  O   PHE    10      62.655  41.378  47.588  1.00  0.00    -0.271 OA
ATOM     90  N   ARG    11      63.394  42.079  49.609  1.00  0.00    -0.338 N 
ATOM     91  H   ARG    11      64.011  41.931  50.381  1.00 99.99     0.164 HD
BRANCH  90  92
ATOM     92  CA  ARG    11      62.489  43.233  49.753  1.00  0.00     0.159 C 
BRANCH  92  93
ATOM     93  C   ARG    11      61.006  42.839  49.618  1.00  0.00     0.251 C 
ATOM     94  O   ARG    11      60.401  42.256  50.522  1.00  0.00    -0.271 OA
ATOM     95  N   CYS    12      60.418  43.194  48.477  1.00  0.00    -0.337 N 
ATOM     96  H   CYS    12      60.862  43.831  47.841  1.00 99.99     0.164 HD
BRANCH  95  97
ATOM     97  CA  CYS    12      59.021  42.837  48.186  1.00  0.00     0.170 C 
BRANCH  97  98
ATOM     98  C   CYS    12      58.859  41.487  47.478  1.00  0.00     0.252 C 
ATOM     99  O   CYS    12      58.683  41.412  46.262  1.00  0.00    -0.271 OA
ATOM    100  N   LYS    13      59.098  40.440  48.273  1.00  0.00    -0.337 N 
ATOM    101  H   LYS    13      59.555  40.585  49.148  1.00 99.99     0.164 HD
BRANCH 100 102
ATOM    102  CA  LYS    13      58.861  39.036  47.895  1.00  0.00     0.159 C 
BRANCH 102 103
ATOM    103  C   LYS    13      57.392  38.574  47.879  1.00  0.00     0.251 C 
ATOM    104  O   LYS    13      56.967  37.866  48.790  1.00  0.00    -0.271 OA
ATOM    105  N   SER    14      56.652  38.876  46.808  1.00  0.00    -0.336 N 
ATOM    106  H   SER    14      57.004  39.389  46.026  1.00 99.99     0.164 HD
BRANCH 105 107
ATOM    107  CA  SER    14      55.198  38.617  46.723  1.00  0.00     0.189 C 
BRANCH 107 108
ATOM    108  C   SER    14      54.285  39.551  47.541  1.00  0.00     0.253 C 
ATOM    109  O   SER    14      53.760  40.543  47.033  1.00  0.00    -0.270 OA
ATOM    110  N   LEU    15      54.158  39.256  48.833  1.00  0.00    -0.337 N 
ATOM    111  H   LEU    15      54.582  38.445  49.231  1.00 99.99     0.164 HD
BRANCH 110 112
ATOM    112  CA  LEU    15      53.510  40.150  49.808  1.00  0.00     0.159 C 
BRANCH 112 113
ATOM    113  CB  LEU    15      52.839  39.385  50.958  1.00  0.00     0.032 C 
BRANCH 113 114
ATOM    114  CG  LEU    15      51.311  39.347  50.883  1.00  0.00     0.002 C 
ATOM    115  CD2 LEU    15      50.679  39.409  52.280  1.00  0.00     0.000 C 
ATOM    116  CD1 LEU    15      50.886  38.054  50.186  1.00  0.00     0.000 C 
ENDBRANCH 113 114
ENDBRANCH 112 113
BRANCH 112 117
ATOM    117  C   LEU    15      54.547  41.089  50.411  1.00  0.00     0.251 C 
ATOM    118  N   LYS    16      55.311  40.530  51.341  1.00  0.00    -0.338 N 
ATOM    119  H   LYS    16      55.232  39.566  51.590  1.00 99.99     0.164 HD
ATOM    120  O   LEU    15      54.668  42.246  50.001  1.00  0.00    -0.271 OA
BRANCH 118 121
ATOM    121  CA  LYS    16      56.402  41.248  52.002  1.00  0.00     0.159 C 
BRANCH 121 122
ATOM    122  C   LYS    16      57.664  40.376  52.013  1.00  0.00     0.251 C 
ATOM    123  O   LYS    16      57.826  39.438  51.232  1.00  0.00    -0.271 OA
ATOM    124  N   PHE    17      58.611  40.908  52.770  1.00  0.00    -0.336 N 
ATOM    125  H   PHE    17      58.539  41.857  53.080  1.00 99.99     0.164 HD
BRANCH 124 126
ATOM    126  CA  PHE    17      59.818  40.222  53.246  1.00  0.00     0.172 C 
BRANCH 126 127
ATOM    127  C   PHE    17      59.358  39.325  54.417  1.00  0.00     0.207 C 
ATOM    128  O   PHE    17      59.224  38.104  54.189  1.00 99.99    -0.646 OA
ATOM    129  OXT PHE    17      58.851  39.941  55.387  1.00 99.99    -0.646 OA
ENDBRANCH 126 127
BRANCH 126 130
ATOM    130  CB  PHE    17      60.747  41.346  53.711  1.00  0.00     0.058 C 
BRANCH 130 131
ATOM    131  CG  PHE    17      62.167  40.905  54.078  1.00  0.00    -0.044 A 
ATOM    132  CD1 PHE    17      62.612  41.031  55.384  1.00  0.00     0.008 A 
ATOM    133  CE1 PHE    17      63.798  40.427  55.774  1.00  0.00     0.001 A 
ATOM    134  CZ  PHE    17      64.537  39.681  54.855  1.00  0.00     0.000 A 
ATOM    135  CE2 PHE    17      64.088  39.564  53.539  1.00  0.00     0.001 A 
ATOM    136  CD2 PHE    17      62.904  40.183  53.155  1.00  0.00     0.008 A 
ENDBRANCH 130 131
ENDBRANCH 126 130
ENDBRANCH 124 126
ENDBRANCH 121 122
BRANCH 121 137
ATOM    137  CB  LYS    16      55.987  41.616  53.432  1.00  0.00     0.032 C 
BRANCH 137 138
ATOM    138  CG  LYS    16      55.082  40.539  54.036  1.00  0.00     0.004 C 
BRANCH 138 139
ATOM    139  CD  LYS    16      55.414  40.245  55.496  1.00  0.00     0.032 C 
BRANCH 139 140
ATOM    140  CE  LYS    16      55.591  38.736  55.672  1.00  0.00     0.206 C 
BRANCH 140 141
ATOM    141  NZ  LYS    16      56.175  38.128  54.470  1.00  0.00    -0.064 N 
ATOM    142  HZ2 LYS    16      56.022  37.141  54.492  1.00 99.99     0.275 HD
ATOM    143  HZ1 LYS    16      57.158  38.314  54.452  1.00 99.99     0.275 HD
ATOM    144  HZ3 LYS    16      55.746  38.519  53.656  1.00 99.99     0.275 HD
ENDBRANCH 140 141
ENDBRANCH 139 140
ENDBRANCH 138 139
ENDBRANCH 137 138
ENDBRANCH 121 137
ENDBRANCH 118 121
ENDBRANCH 112 117
ENDBRANCH 110 112
ENDBRANCH 107 108
BRANCH 107 145
ATOM    145  CB  SER    14      54.939  37.151  47.097  1.00  0.00     0.169 C 
BRANCH 145 146
ATOM    146  OG  SER    14      53.531  36.921  47.217  1.00  0.00    -0.380 OA
ATOM    147  HG  SER    14      53.374  35.935  47.302  1.00 99.99     0.211 HD
ENDBRANCH 145 146
ENDBRANCH 107 145
ENDBRANCH 105 107
ENDBRANCH 102 103
BRANCH 102 148
ATOM    148  CB  LYS    13      59.716  38.073  48.742  1.00  0.00     0.032 C 
BRANCH 148 149
ATOM    149  CG  LYS    13      60.819  38.796  49.530  1.00  0.00     0.004 C 
BRANCH 149 150
ATOM    150  CD  LYS    13      61.718  37.806  50.279  1.00  0.00     0.032 C 
BRANCH 150 151
ATOM    151  CE  LYS    13      60.917  36.931  51.243  1.00  0.00     0.206 C 
BRANCH 151 152
ATOM    152  NZ  LYS    13      61.513  36.992  52.587  1.00  0.00    -0.064 N 
ATOM    153  HZ1 LYS    13      61.931  36.113  52.810  1.00 99.99     0.275 HD
ATOM    154  HZ2 LYS    13      62.199  37.717  52.619  1.00 99.99     0.275 HD
ATOM    155  HZ3 LYS    13      60.787  37.191  53.249  1.00 99.99     0.275 HD
ENDBRANCH 151 152
ENDBRANCH 150 151
ENDBRANCH 149 150
ENDBRANCH 148 149
ENDBRANCH 102 148
ENDBRANCH 100 102
ENDBRANCH  97  98
BRANCH  97 156
ATOM    156  CB  CYS    12      58.341  43.937  47.362  1.00  0.00     0.085 C 
BRANCH 156 157
ATOM    157  SG  CYS    12      56.595  44.174  47.856  1.00  0.00    -0.165 SA
ATOM    158  HG  CYS    12      56.305  42.885  47.997  1.00 99.99     0.102 HD
ENDBRANCH 156 157
ENDBRANCH  97 156
ENDBRANCH  95  97
ENDBRANCH  92  93
BRANCH  92 159
ATOM    159  CB  ARG    11      62.898  44.284  48.708  1.00  0.00     0.034 C 
BRANCH 159 160
ATOM    160  CG  ARG    11      62.927  45.704  49.279  1.00  0.00     0.027 C 
BRANCH 160 161
ATOM    161  CD  ARG    11      64.257  45.962  49.990  1.00  0.00     0.116 C 
BRANCH 161 162
ATOM    162  NE  ARG    11      65.101  46.828  49.151  1.00  0.00    -0.212 N 
ATOM    163  HE  ARG    11      64.637  47.244  48.374  1.00 99.99     0.178 HD
ATOM    164  CZ  ARG    11      66.400  47.096  49.335  1.00  0.00     0.666 C 
ATOM    165  NH1 ARG    11      67.093  46.575  50.341  1.00  0.00    -0.235 N 
ATOM    166  NH2 ARG    11      67.041  47.894  48.495  1.00  0.00    -0.235 N 
ATOM    167 2HH1 ARG    11      66.632  45.953  50.975  1.00 99.99     0.174 HD
ATOM    168 1HH1 ARG    11      68.059  46.789  50.456  1.00 99.99     0.174 HD
ATOM    169 1HH2 ARG    11      68.010  48.084  48.642  1.00 99.99     0.174 HD
ATOM    170 2HH2 ARG    11      66.566  48.300  47.717  1.00 99.99     0.174 HD
ENDBRANCH 161 162
ENDBRANCH 160 161
ENDBRANCH 159 160
ENDBRANCH  92 159
ENDBRANCH  90  92
ENDBRANCH  87  88
BRANCH  87 171
ATOM    171  CB  PHE    10      64.917  39.892  50.099  1.00  0.00     0.056 C 
BRANCH 171 172
ATOM    172  CG  PHE    10      65.883  38.708  50.290  1.00  0.00    -0.044 A 
ATOM    173  CD2 PHE    10      67.246  38.916  50.377  1.00  0.00     0.008 A 
ATOM    174  CE2 PHE    10      68.106  37.844  50.561  1.00  0.00     0.001 A 
ATOM    175  CZ  PHE    10      67.596  36.549  50.662  1.00  0.00     0.000 A 
ATOM    176  CE1 PHE    10      66.218  36.343  50.554  1.00  0.00     0.001 A 
ATOM    177  CD1 PHE    10      65.367  37.426  50.374  1.00  0.00     0.008 A 
ENDBRANCH 171 172
ENDBRANCH  87 171
ENDBRANCH  84  87
ENDBRANCH  74  83
ENDBRANCH  72  74
ENDBRANCH  65  70
ENDBRANCH  63  65
ENDBRANCH  52  61
ENDBRANCH  49  52
ENDBRANCH  47  48
BRANCH  47 178
ATOM    178  CB  ILE     6      63.459  39.876  36.216  1.00  0.00     0.029 C 
ATOM    179  CG2 ILE     6      62.645  38.593  35.990  1.00  0.00     0.002 C 
BRANCH 178 180
ATOM    180  CG1 ILE     6      62.979  41.061  35.357  1.00  0.00     0.002 C 
ATOM    181  CD  ILE     6      61.599  40.867  34.715  1.00  0.00     0.000 C 
ENDBRANCH 178 180
ENDBRANCH  47 178
ENDBRANCH  45  47
ENDBRANCH  42  43
BRANCH  42 182
ATOM    182  CB  TRP     5      60.729  43.153  38.157  1.00  0.00     0.059 C 
BRANCH 182 183
ATOM    183  CG  TRP     5      59.815  43.608  37.009  1.00  0.00    -0.016 A 
ATOM    184  CD1 TRP     5      58.484  43.577  36.944  1.00  0.00     0.097 A 
ATOM    185  NE1 TRP     5      58.065  44.263  35.880  1.00  0.00    -0.365 N 
ATOM    186  CE2 TRP     5      59.122  44.734  35.219  1.00  0.00     0.042 A 
ATOM    187  HE1 TRP     5      57.109  44.447  35.657  1.00 99.99     0.165 HD
ATOM    188  CD2 TRP     5      60.251  44.322  35.907  1.00  0.00    -0.001 A 
ATOM    189  CZ2 TRP     5      59.250  45.565  34.114  1.00  0.00     0.030 A 
ATOM    190  CE3 TRP     5      61.513  44.732  35.502  1.00  0.00     0.014 A 
ATOM    191  CZ3 TRP     5      61.645  45.576  34.402  1.00  0.00     0.001 A 
ATOM    192  CH2 TRP     5      60.509  45.987  33.708  1.00  0.00     0.002 A 
ENDBRANCH 182 183
ENDBRANCH  42 182
ENDBRANCH  39  42
ENDBRANCH  34  38
ENDBRANCH  31  34
ENDBRANCH  17  30
ENDBRANCH  15  17
ENDBRANCH   8  13
ENDBRANCH   5   6
BRANCH   5 193
ATOM    193  CB  ARG     1      56.177  37.406  37.585  1.00  0.00     0.042 C 
BRANCH 193 194
ATOM    194  CG  ARG     1      54.682  37.339  37.212  1.00  0.00     0.027 C 
BRANCH 194 195
ATOM    195  CD  ARG     1      53.995  36.072  37.744  1.00  0.00     0.116 C 
BRANCH 195 196
ATOM    196  NE  ARG     1      53.268  36.343  39.002  1.00  0.00    -0.212 N 
ATOM    197  HE  ARG     1      52.769  37.207  39.025  1.00 99.99     0.178 HD
ATOM    198  CZ  ARG     1      53.231  35.569  40.098  1.00  0.00     0.666 C 
ATOM    199  NH2 ARG     1      52.549  35.945  41.172  1.00  0.00    -0.235 N 
ATOM    200  NH1 ARG     1      53.872  34.408  40.168  1.00  0.00    -0.235 N 
ATOM    201 2HH2 ARG     1      52.057  36.814  41.189  1.00 99.99     0.174 HD
ATOM    202 1HH2 ARG     1      52.532  35.352  41.976  1.00 99.99     0.174 HD
ATOM    203 1HH1 ARG     1      53.823  33.853  40.995  1.00 99.99     0.174 HD
ATOM    204 2HH1 ARG     1      54.401  34.097  39.380  1.00 99.99     0.174 HD
ENDBRANCH 195 196
ENDBRANCH 194 195
ENDBRANCH 193 194
ENDBRANCH   5 193
ENDBRANCH   1   5
TORSDOF 83
ENDMDL
MODEL 3
REMARK VINA RESULT:      -3.6      2.477      6.832
REMARK WARNING: 32 MAX_TORS EXCEEDED!!!
REMARK  83 active torsions:
REMARK  status: ('A' for Active; 'I' for Inactive)
REMARK    1  A    between atoms: N_1  and  CA_2 
REMARK    2  A    between atoms: CA_2  and  C_3 
REMARK    3  A    between atoms: CA_2  and  CB_5 
REMARK       I    between atoms: C_3  and  N_20 
REMARK    4  A    between atoms: CB_5  and  CG_6 
REMARK    5  A    between atoms: CG_6  and  CD_7 
REMARK    6  A    between atoms: CD_7  and  NE_8 
REMARK       I    between atoms: NE_8  and  CZ_9 
REMARK       I    between atoms: CZ_9  and  NH2_11 
REMARK       I    between atoms: CZ_9  and  NH1_10 
REMARK    7  A    between atoms: CA_21  and  C_22 
REMARK       I    between atoms: C_22  and  N_27 
REMARK    8  A    between atoms: N_27  and  CA_28 
REMARK    9  A    between atoms: CA_28  and  CB_31 
REMARK   10  A    between atoms: CA_28  and  C_29 
REMARK       I    between atoms: C_29  and  N_44 
REMARK   11  A    between atoms: CB_31  and  CG_32 
REMARK   12  A    between atoms: CG_32  and  CD_33 
REMARK   13  A    between atoms: CD_33  and  NE_34 
REMARK       I    between atoms: NE_34  and  CZ_35 
REMARK       I    between atoms: CZ_35  and  NH1_36 
REMARK       I    between atoms: CZ_35  and  NH2_37 
REMARK   14  A    between atoms: N_44  and  CA_45 
REMARK   15  A    between atoms: CA_45  and  CB_48 
REMARK   16  A    between atoms: CA_45  and  C_46 
REMARK       I    between atoms: C_46  and  N_52 
REMARK   17  A    between atoms: CB_48  and  SG_49 
REMARK   18  A    between atoms: N_52  and  CA_53 
REMARK   19  A    between atoms: CA_53  and  C_54 
REMARK   20  A    between atoms: CA_53  and  CB_56 
REMARK       I    between atoms: C_54  and  N_68 
REMARK   21  A    between atoms: CB_56  and  CG_57 
REMARK   22  A    between atoms: N_68  and  CA_69 
REMARK   23  A    between atoms: CA_69  and  C_70 
REMARK   24  A    between atoms: CA_69  and  CB_72 
REMARK       I    between atoms: C_70  and  N_77 
REMARK   25  A    between atoms: CB_72  and  CG1_73 
REMARK   26  A    between atoms: N_77  and  CA_78 
REMARK   27  A    between atoms: CA_78  and  CB_81 
REMARK   28  A    between atoms: CA_78  and  C_79 
REMARK       I    between atoms: C_79  and  N_90 
REMARK   29  A    between atoms: CB_81  and  CG_82 
REMARK   30  A    between atoms: CG_82  and  CD_83 
REMARK   31  A    between atoms: CD_83  and  CE_84 
REMARK   32  A    between atoms: CE_84  and  NZ_85 
REMARK   33  A    between atoms: N_90  and  CA_91 
REMARK   34  A    between atoms: CA_91  and  CB_94 
REMARK   35  A    between atoms: CA_91  and  C_92 
REMARK       I    between atoms: C_92  and  N_99 
REMARK   36  A    between atoms: CB_94  and  CG1_95 
REMARK   37  A    between atoms: N_99  and  CA_100 
REMARK   38  A    between atoms: CA_100  and  CB_103 
REMARK   39  A    between atoms: CA_100  and  C_101 
REMARK       I    between atoms: C_101  and  N_112 
REMARK   40  A    between atoms: CB_103  and  CG_104 
REMARK   41  A    between atoms: CG_104  and  CD_105 
REMARK   42  A    between atoms: CD_105  and  CE_106 
REMARK   43  A    between atoms: CE_106  and  NZ_107 
REMARK   44  A    between atoms: N_112  and  CA_113 
REMARK   45  A    between atoms: CA_113  and  C_114 
REMARK   46  A    between atoms: CA_113  and  CB_116 
REMARK       I    between atoms: C_114  and  N_124 
REMARK   47  A    between atoms: CB_116  and  CG_117 
REMARK   48  A    between atoms: N_124  and  CA_125 
REMARK   49  A    between atoms: CA_125  and  C_126 
REMARK   50  A    between atoms: CA_125  and  CB_128 
REMARK       I    between atoms: C_126  and  N_141 
REMARK   51  A    between atoms: CB_128  and  CG_129 
REMARK   52  A    between atoms: CG_129  and  CD_130 
REMARK   53  A    between atoms: CD_130  and  NE_131 
REMARK       I    between atoms: NE_131  and  CZ_132 
REMARK       I    between atoms: CZ_132  and  NH1_133 
REMARK   54  A    between atoms: N_141  and  CA_142 
REMARK   55  A    between atoms: CA_142  and  C_143 
REMARK   56  A    between atoms: CA_142  and  CB_145 
REMARK       I    between atoms: C_143  and  N_149 
REMARK   57  A    between atoms: CB_145  and  SG_146 
REMARK   58  A    between atoms: N_149  and  CA_150 
REMARK   59  A    between atoms: CA_150  and  C_151 
REMARK   60  A    between atoms: CA_150  and  CB_153 
REMARK       I    between atoms: C_151  and  N_162 
REMARK   61  A    between atoms: CB_153  and  CG_154 
REMARK   62  A    between atoms: CG_154  and  CD_155 
REMARK   63  A    between atoms: CD_155  and  CE_156 
REMARK   64  A    between atoms: CE_156  and  NZ_157 
REMARK   65  A    between atoms: N_162  and  CA_163 
REMARK   66  A    between atoms: CA_163  and  C_164 
REMARK   67  A    between atoms: CA_163  and  CB_166 
REMARK       I    between atoms: C_164  and  N_170 
REMARK   68  A    between atoms: CB_166  and  OG_167 
REMARK   69  A    between atoms: N_170  and  CA_171 
REMARK   70  A    between atoms: CA_171  and  CB_174 
REMARK   71  A    between atoms: CA_171  and  C_172 
REMARK       I    between atoms: C_172  and  N_179 
REMARK   72  A    between atoms: CB_174  and  CG_175 
REMARK   73  A    between atoms: N_179  and  CA_180 
REMARK   74  A    between atoms: CA_180  and  C_181 
REMARK   75  A    between atoms: CA_180  and  CB_183 
REMARK       I    between atoms: C_181  and  N_192 
REMARK   76  A    between atoms: CB_183  and  CG_184 
REMARK   77  A    between atoms: CG_184  and  CD_185 
REMARK   78  A    between atoms: CD_185  and  CE_186 
REMARK   79  A    between atoms: CE_186  and  NZ_187 
REMARK   80  A    between atoms: N_192  and  CA_193 
REMARK   81  A    between atoms: CA_193  and  C_194 
REMARK   82  A    between atoms: CA_193  and  CB_196 
REMARK   83  A    between atoms: CB_196  and  CG_197 
ROOT
ATOM      1  N   ARG     1      60.277  43.486  36.898  1.00  0.00    -0.058 N 
ATOM      2  H1  ARG     1      59.466  43.451  36.316  1.00 99.99     0.276 HD
ATOM      3  H2  ARG     1      60.205  44.281  37.475  1.00 99.99     0.276 HD
ATOM      4  H3  ARG     1      61.078  43.637  36.341  1.00 99.99     0.276 HD
ENDROOT
BRANCH   1   5
ATOM      5  CA  ARG     1      60.332  42.221  37.684  1.00  0.00     0.255 C 
BRANCH   5   6
ATOM      6  C   ARG     1      59.201  42.254  38.735  1.00  0.00     0.262 C 
ATOM      7  N   PRO     2      58.594  41.107  39.069  1.00  0.00    -0.312 N 
ATOM      8  CA  PRO     2      57.671  41.028  40.218  1.00  0.00     0.163 C 
ATOM      9  CD  PRO     2      58.677  39.812  38.365  1.00  0.00     0.105 C 
ATOM     10  CB  PRO     2      57.033  39.642  40.116  1.00  0.00     0.034 C 
ATOM     11  CG  PRO     2      58.070  38.814  39.355  1.00  0.00     0.027 C 
ATOM     12  O   ARG     1      58.783  43.347  39.130  1.00  0.00    -0.270 OA
BRANCH   8  13
ATOM     13  C   PRO     2      58.456  41.237  41.523  1.00  0.00     0.251 C 
ATOM     14  O   PRO     2      59.590  40.780  41.651  1.00  0.00    -0.271 OA
ATOM     15  N   ARG     3      57.899  42.072  42.395  1.00  0.00    -0.338 N 
ATOM     16  H   ARG     3      57.053  42.569  42.190  1.00 99.99     0.164 HD
BRANCH  15  17
ATOM     17  CA  ARG     3      58.484  42.362  43.716  1.00  0.00     0.159 C 
BRANCH  17  18
ATOM     18  CB  ARG     3      58.337  41.144  44.644  1.00  0.00     0.034 C 
BRANCH  18  19
ATOM     19  CG  ARG     3      57.263  40.167  44.147  1.00  0.00     0.027 C 
BRANCH  19  20
ATOM     20  CD  ARG     3      57.774  38.729  44.005  1.00  0.00     0.116 C 
BRANCH  20  21
ATOM     21  NE  ARG     3      59.226  38.652  44.239  1.00  0.00    -0.212 N 
ATOM     22  CZ  ARG     3      59.831  38.084  45.287  1.00  0.00     0.666 C 
ATOM     23  NH1 ARG     3      59.148  37.520  46.277  1.00  0.00    -0.235 N 
ATOM     24  NH2 ARG     3      61.154  38.025  45.341  1.00  0.00    -0.235 N 
ATOM     25 1HH1 ARG     3      59.624  37.098  47.044  1.00 99.99     0.174 HD
ATOM     26 2HH1 ARG     3      58.150  37.523  46.237  1.00 99.99     0.174 HD
ATOM     27 1HH2 ARG     3      61.595  37.593  46.125  1.00 99.99     0.174 HD
ATOM     28 2HH2 ARG     3      61.709  38.400  44.599  1.00 99.99     0.174 HD
ATOM     29  HE  ARG     3      59.791  39.083  43.539  1.00 99.99     0.178 HD
ENDBRANCH  20  21
ENDBRANCH  19  20
ENDBRANCH  18  19
ENDBRANCH  17  18
BRANCH  17  30
ATOM     30  C   ARG     3      59.966  42.702  43.552  1.00  0.00     0.251 C 
ATOM     31  N   CYS     4      60.797  41.893  44.206  1.00  0.00    -0.337 N 
ATOM     32  H   CYS     4      60.455  41.205  44.843  1.00 99.99     0.164 HD
ATOM     33  O   ARG     3      60.324  43.691  42.909  1.00  0.00    -0.271 OA
BRANCH  31  34
ATOM     34  CA  CYS     4      62.265  41.965  44.115  1.00  0.00     0.170 C 
BRANCH  34  35
ATOM     35  CB  CYS     4      62.855  41.998  45.532  1.00  0.00     0.085 C 
BRANCH  35  36
ATOM     36  SG  CYS     4      64.186  43.227  45.794  1.00  0.00    -0.165 SA
ATOM     37  HG  CYS     4      63.697  44.138  44.957  1.00 99.99     0.102 HD
ENDBRANCH  35  36
ENDBRANCH  34  35
BRANCH  34  38
ATOM     38  C   CYS     4      62.814  40.713  43.412  1.00  0.00     0.252 C 
ATOM     39  N   TRP     5      64.090  40.783  43.045  1.00  0.00    -0.337 N 
ATOM     40  H   TRP     5      64.612  41.632  43.094  1.00 99.99     0.164 HD
ATOM     41  O   CYS     4      62.094  39.737  43.200  1.00  0.00    -0.271 OA
BRANCH  39  42
ATOM     42  CA  TRP     5      64.827  39.638  42.483  1.00  0.00     0.164 C 
BRANCH  42  43
ATOM     43  C   TRP     5      65.292  38.732  43.620  1.00  0.00     0.251 C 
ATOM     44  O   TRP     5      64.597  37.792  44.016  1.00  0.00    -0.271 OA
ATOM     45  N   ILE     6      66.576  38.883  43.937  1.00  0.00    -0.338 N 
ATOM     46  H   ILE     6      67.143  39.546  43.453  1.00 99.99     0.164 HD
BRANCH  45  47
ATOM     47  CA  ILE     6      67.257  38.116  44.999  1.00  0.00     0.159 C 
BRANCH  47  48
ATOM     48  C   ILE     6      67.131  38.806  46.371  1.00  0.00     0.251 C 
ATOM     49  N   LYS     7      68.080  39.687  46.714  1.00  0.00    -0.338 N 
ATOM     50  H   LYS     7      68.860  39.863  46.116  1.00 99.99     0.164 HD
ATOM     51  O   ILE     6      66.185  38.532  47.111  1.00  0.00    -0.271 OA
BRANCH  49  52
ATOM     52  CA  LYS     7      68.105  40.421  47.994  1.00  0.00     0.159 C 
BRANCH  52  53
ATOM     53  CB  LYS     7      67.124  41.598  47.870  1.00  0.00     0.032 C 
BRANCH  53  54
ATOM     54  CG  LYS     7      67.811  42.968  47.872  1.00  0.00     0.004 C 
BRANCH  54  55
ATOM     55  CD  LYS     7      67.751  43.608  46.485  1.00  0.00     0.032 C 
BRANCH  55  56
ATOM     56  CE  LYS     7      68.972  43.215  45.653  1.00  0.00     0.206 C 
BRANCH  56  57
ATOM     57  NZ  LYS     7      70.193  43.216  46.474  1.00  0.00    -0.064 N 
ATOM     58  HZ3 LYS     7      69.972  43.530  47.397  1.00 99.99     0.275 HD
ATOM     59  HZ2 LYS     7      70.868  43.826  46.064  1.00 99.99     0.275 HD
ATOM     60  HZ1 LYS     7      70.564  42.288  46.519  1.00 99.99     0.275 HD
ENDBRANCH  56  57
ENDBRANCH  55  56
ENDBRANCH  54  55
ENDBRANCH  53  54
ENDBRANCH  52  53
BRANCH  52  61
ATOM     61  C   LYS     7      67.811  39.512  49.212  1.00  0.00     0.251 C 
ATOM     62  O   LYS     7      67.012  39.823  50.097  1.00  0.00    -0.271 OA
ATOM     63  N   ILE     8      68.523  38.388  49.238  1.00  0.00    -0.338 N 
ATOM     64  H   ILE     8      69.112  38.157  48.455  1.00 99.99     0.164 HD
BRANCH  63  65
ATOM     65  CA  ILE     8      68.428  37.304  50.239  1.00  0.00     0.159 C 
BRANCH  65  66
ATOM     66  CB  ILE     8      68.833  37.837  51.641  1.00  0.00     0.029 C 
ATOM     67  CG2 ILE     8      68.901  36.721  52.703  1.00  0.00     0.002 C 
BRANCH  66  68
ATOM     68  CG1 ILE     8      70.121  38.677  51.565  1.00  0.00     0.002 C 
ATOM     69  CD  ILE     8      70.460  39.479  52.830  1.00  0.00     0.000 C 
ENDBRANCH  66  68
ENDBRANCH  65  66
BRANCH  65  70
ATOM     70  C   ILE     8      66.992  36.738  50.206  1.00  0.00     0.251 C 
ATOM     71  O   ILE     8      66.676  35.891  49.372  1.00  0.00    -0.271 OA
ATOM     72  N   LYS     9      66.140  37.202  51.120  1.00  0.00    -0.338 N 
ATOM     73  H   LYS     9      66.412  37.875  51.806  1.00 99.99     0.164 HD
BRANCH  72  74
ATOM     74  CA  LYS     9      64.741  36.739  51.211  1.00  0.00     0.159 C 
BRANCH  74  75
ATOM     75  CB  LYS     9      64.515  35.998  52.542  1.00  0.00     0.032 C 
BRANCH  75  76
ATOM     76  CG  LYS     9      65.405  36.448  53.703  1.00  0.00     0.004 C 
BRANCH  76  77
ATOM     77  CD  LYS     9      64.823  35.906  55.012  1.00  0.00     0.032 C 
BRANCH  77  78
ATOM     78  CE  LYS     9      65.061  36.853  56.190  1.00  0.00     0.206 C 
BRANCH  78  79
ATOM     79  NZ  LYS     9      64.077  36.606  57.253  1.00  0.00    -0.064 N 
ATOM     80  HZ3 LYS     9      63.153  36.687  56.878  1.00 99.99     0.275 HD
ATOM     81  HZ2 LYS     9      64.198  37.276  57.985  1.00 99.99     0.275 HD
ATOM     82  HZ1 LYS     9      64.205  35.685  57.621  1.00 99.99     0.275 HD
ENDBRANCH  78  79
ENDBRANCH  77  78
ENDBRANCH  76  77
ENDBRANCH  75  76
ENDBRANCH  74  75
BRANCH  74  83
ATOM     83  C   LYS     9      63.763  37.922  51.099  1.00  0.00     0.251 C 
ATOM     84  N   PHE    10      63.999  38.797  50.120  1.00  0.00    -0.337 N 
ATOM     85  H   PHE    10      64.687  38.644  49.410  1.00 99.99     0.164 HD
ATOM     86  O   LYS     9      62.819  38.050  51.882  1.00  0.00    -0.271 OA
BRANCH  84  87
ATOM     87  CA  PHE    10      63.151  39.998  49.955  1.00  0.00     0.164 C 
BRANCH  87  88
ATOM     88  C   PHE    10      61.863  39.728  49.164  1.00  0.00     0.251 C 
ATOM     89  O   PHE    10      61.874  39.572  47.943  1.00  0.00    -0.271 OA
ATOM     90  N   ARG    11      60.760  39.660  49.911  1.00  0.00    -0.338 N 
ATOM     91  H   ARG    11      60.803  39.783  50.901  1.00 99.99     0.164 HD
BRANCH  90  92
ATOM     92  CA  ARG    11      59.415  39.372  49.381  1.00  0.00     0.159 C 
BRANCH  92  93
ATOM     93  C   ARG    11      58.588  40.651  49.146  1.00  0.00     0.251 C 
ATOM     94  O   ARG    11      59.114  41.765  49.078  1.00  0.00    -0.271 OA
ATOM     95  N   CYS    12      57.277  40.468  48.994  1.00  0.00    -0.337 N 
ATOM     96  H   CYS    12      56.894  39.551  48.858  1.00 99.99     0.164 HD
BRANCH  95  97
ATOM     97  CA  CYS    12      56.357  41.602  48.816  1.00  0.00     0.170 C 
BRANCH  97  98
ATOM     98  C   CYS    12      54.885  41.252  49.064  1.00  0.00     0.252 C 
ATOM     99  O   CYS    12      53.998  42.103  48.994  1.00  0.00    -0.271 OA
ATOM    100  N   LYS    13      54.665  39.939  49.183  1.00  0.00    -0.337 N 
ATOM    101  H   LYS    13      55.374  39.297  48.899  1.00 99.99     0.164 HD
BRANCH 100 102
ATOM    102  CA  LYS    13      53.378  39.344  49.581  1.00  0.00     0.159 C 
BRANCH 102 103
ATOM    103  C   LYS    13      53.217  39.007  51.075  1.00  0.00     0.251 C 
ATOM    104  O   LYS    13      52.116  39.126  51.610  1.00  0.00    -0.271 OA
ATOM    105  N   SER    14      54.316  38.696  51.769  1.00  0.00    -0.336 N 
ATOM    106  H   SER    14      55.229  38.665  51.364  1.00 99.99     0.164 HD
BRANCH 105 107
ATOM    107  CA  SER    14      54.287  38.218  53.169  1.00  0.00     0.189 C 
BRANCH 107 108
ATOM    108  C   SER    14      54.711  39.232  54.250  1.00  0.00     0.253 C 
ATOM    109  O   SER    14      54.299  40.393  54.238  1.00  0.00    -0.270 OA
ATOM    110  N   LEU    15      55.593  38.794  55.146  1.00  0.00    -0.337 N 
ATOM    111  H   LEU    15      55.913  37.848  55.149  1.00 99.99     0.164 HD
BRANCH 110 112
ATOM    112  CA  LEU    15      56.272  39.676  56.111  1.00  0.00     0.159 C 
BRANCH 112 113
ATOM    113  CB  LEU    15      56.334  39.071  57.521  1.00  0.00     0.032 C 
BRANCH 113 114
ATOM    114  CG  LEU    15      55.711  39.946  58.611  1.00  0.00     0.002 C 
ATOM    115  CD2 LEU    15      54.414  39.331  59.153  1.00  0.00     0.000 C 
ATOM    116  CD1 LEU    15      55.416  41.326  58.022  1.00  0.00     0.000 C 
ENDBRANCH 113 114
ENDBRANCH 112 113
BRANCH 112 117
ATOM    117  C   LEU    15      57.699  39.938  55.649  1.00  0.00     0.251 C 
ATOM    118  N   LYS    16      57.967  39.494  54.427  1.00  0.00    -0.338 N 
ATOM    119  H   LYS    16      57.274  39.061  53.853  1.00 99.99     0.164 HD
ATOM    120  O   LEU    15      58.490  40.563  56.360  1.00  0.00    -0.271 OA
BRANCH 118 121
ATOM    121  CA  LYS    16      59.263  39.697  53.780  1.00  0.00     0.159 C 
BRANCH 121 122
ATOM    122  C   LYS    16      60.352  38.944  54.553  1.00  0.00     0.251 C 
ATOM    123  O   LYS    16      60.454  37.717  54.525  1.00  0.00    -0.271 OA
ATOM    124  N   PHE    17      61.272  39.772  55.022  1.00  0.00    -0.336 N 
ATOM    125  H   PHE    17      61.319  40.716  54.693  1.00 99.99     0.164 HD
BRANCH 124 126
ATOM    126  CA  PHE    17      62.281  39.451  56.040  1.00  0.00     0.172 C 
BRANCH 126 127
ATOM    127  C   PHE    17      61.497  39.228  57.353  1.00  0.00     0.207 C 
ATOM    128  O   PHE    17      61.225  40.234  58.041  1.00 99.99    -0.646 OA
ATOM    129  OXT PHE    17      61.491  38.042  57.769  1.00 99.99    -0.646 OA
ENDBRANCH 126 127
BRANCH 126 130
ATOM    130  CB  PHE    17      63.175  40.691  56.105  1.00  0.00     0.058 C 
BRANCH 130 131
ATOM    131  CG  PHE    17      64.548  40.536  55.441  1.00  0.00    -0.044 A 
ATOM    132  CD1 PHE    17      65.691  40.488  56.224  1.00  0.00     0.008 A 
ATOM    133  CE1 PHE    17      66.902  40.118  55.660  1.00  0.00     0.001 A 
ATOM    134  CZ  PHE    17      66.969  39.780  54.309  1.00  0.00     0.000 A 
ATOM    135  CE2 PHE    17      65.817  39.838  53.523  1.00  0.00     0.001 A 
ATOM    136  CD2 PHE    17      64.609  40.221  54.095  1.00  0.00     0.008 A 
ENDBRANCH 130 131
ENDBRANCH 126 130
ENDBRANCH 124 126
ENDBRANCH 121 122
BRANCH 121 137
ATOM    137  CB  LYS    16      59.582  41.197  53.721  1.00  0.00     0.032 C 
BRANCH 137 138
ATOM    138  CG  LYS    16      59.009  41.830  52.451  1.00  0.00     0.004 C 
BRANCH 138 139
ATOM    139  CD  LYS    16      57.933  42.871  52.748  1.00  0.00     0.032 C 
BRANCH 139 140
ATOM    140  CE  LYS    16      56.898  42.851  51.622  1.00  0.00     0.206 C 
BRANCH 140 141
ATOM    141  NZ  LYS    16      55.691  43.597  51.999  1.00  0.00    -0.064 N 
ATOM    142  HZ2 LYS    16      55.193  43.858  51.172  1.00 99.99     0.275 HD
ATOM    143  HZ1 LYS    16      55.957  44.420  52.502  1.00 99.99     0.275 HD
ATOM    144  HZ3 LYS    16      55.111  43.024  52.577  1.00 99.99     0.275 HD
ENDBRANCH 140 141
ENDBRANCH 139 140
ENDBRANCH 138 139
ENDBRANCH 137 138
ENDBRANCH 121 137
ENDBRANCH 118 121
ENDBRANCH 112 117
ENDBRANCH 110 112
ENDBRANCH 107 108
BRANCH 107 145
ATOM    145  CB  SER    14      55.136  36.943  53.268  1.00  0.00     0.169 C 
BRANCH 145 146
ATOM    146  OG  SER    14      56.474  37.214  52.835  1.00  0.00    -0.380 OA
ATOM    147  HG  SER    14      56.967  36.344  52.758  1.00 99.99     0.211 HD
ENDBRANCH 145 146
ENDBRANCH 107 145
ENDBRANCH 105 107
ENDBRANCH 102 103
BRANCH 102 148
ATOM    148  CB  LYS    13      53.036  38.115  48.716  1.00  0.00     0.032 C 
BRANCH 148 149
ATOM    149  CG  LYS    13      53.363  38.326  47.230  1.00  0.00     0.004 C 
BRANCH 149 150
ATOM    150  CD  LYS    13      53.639  36.997  46.518  1.00  0.00     0.032 C 
BRANCH 150 151
ATOM    151  CE  LYS    13      54.582  37.176  45.329  1.00  0.00     0.206 C 
BRANCH 151 152
ATOM    152  NZ  LYS    13      53.878  36.850  44.079  1.00  0.00    -0.064 N 
ATOM    153  HZ1 LYS    13      52.902  37.032  44.185  1.00 99.99     0.275 HD
ATOM    154  HZ2 LYS    13      54.250  37.397  43.330  1.00 99.99     0.275 HD
ATOM    155  HZ3 LYS    13      54.014  35.877  43.880  1.00 99.99     0.275 HD
ENDBRANCH 151 152
ENDBRANCH 150 151
ENDBRANCH 149 150
ENDBRANCH 148 149
ENDBRANCH 102 148
ENDBRANCH 100 102
ENDBRANCH  97  98
BRANCH  97 156
ATOM    156  CB  CYS    12      56.514  42.212  47.418  1.00  0.00     0.085 C 
BRANCH 156 157
ATOM    157  SG  CYS    12      56.994  43.976  47.499  1.00  0.00    -0.165 SA
ATOM    158  HG  CYS    12      56.173  44.309  48.488  1.00 99.99     0.102 HD
ENDBRANCH 156 157
ENDBRANCH  97 156
ENDBRANCH  95  97
ENDBRANCH  92  93
BRANCH  92 159
ATOM    159  CB  ARG    11      58.719  38.414  50.362  1.00  0.00     0.034 C 
BRANCH 159 160
ATOM    160  CG  ARG    11      59.632  37.276  50.822  1.00  0.00     0.027 C 
BRANCH 160 161
ATOM    161  CD  ARG    11      58.884  35.942  50.769  1.00  0.00     0.116 C 
BRANCH 161 162
ATOM    162  NE  ARG    11      58.334  35.742  49.417  1.00  0.00    -0.212 N 
ATOM    163  HE  ARG    11      59.015  35.633  48.698  1.00 99.99     0.178 HD
ATOM    164  CZ  ARG    11      57.039  35.697  49.082  1.00  0.00     0.666 C 
ATOM    165  NH1 ARG    11      56.071  35.842  49.979  1.00  0.00    -0.235 N 
ATOM    166  NH2 ARG    11      56.684  35.514  47.819  1.00  0.00    -0.235 N 
ATOM    167 2HH1 ARG    11      56.319  36.002  50.935  1.00 99.99     0.174 HD
ATOM    168 1HH1 ARG    11      55.115  35.806  49.704  1.00 99.99     0.174 HD
ATOM    169 1HH2 ARG    11      55.716  35.485  47.581  1.00 99.99     0.174 HD
ATOM    170 2HH2 ARG    11      57.376  35.412  47.107  1.00 99.99     0.174 HD
ENDBRANCH 161 162
ENDBRANCH 160 161
ENDBRANCH 159 160
ENDBRANCH  92 159
ENDBRANCH  90  92
ENDBRANCH  87  88
BRANCH  87 171
ATOM    171  CB  PHE    10      63.949  41.184  49.394  1.00  0.00     0.056 C 
BRANCH 171 172
ATOM    172  CG  PHE    10      63.542  42.567  49.935  1.00  0.00    -0.044 A 
ATOM    173  CD2 PHE    10      62.628  42.681  50.965  1.00  0.00     0.008 A 
ATOM    174  CE2 PHE    10      62.278  43.931  51.453  1.00  0.00     0.001 A 
ATOM    175  CZ  PHE    10      62.853  45.080  50.907  1.00  0.00     0.000 A 
ATOM    176  CE1 PHE    10      63.762  44.959  49.853  1.00  0.00     0.001 A 
ATOM    177  CD1 PHE    10      64.107  43.700  49.376  1.00  0.00     0.008 A 
ENDBRANCH 171 172
ENDBRANCH  87 171
ENDBRANCH  84  87
ENDBRANCH  74  83
ENDBRANCH  72  74
ENDBRANCH  65  70
ENDBRANCH  63  65
ENDBRANCH  52  61
ENDBRANCH  49  52
ENDBRANCH  47  48
BRANCH  47 178
ATOM    178  CB  ILE     6      68.721  37.829  44.593  1.00  0.00     0.029 C 
ATOM    179  CG2 ILE     6      69.171  36.512  45.246  1.00  0.00     0.002 C 
BRANCH 178 180
ATOM    180  CG1 ILE     6      68.922  37.851  43.065  1.00  0.00     0.002 C 
ATOM    181  CD  ILE     6      70.369  38.093  42.615  1.00  0.00     0.000 C 
ENDBRANCH 178 180
ENDBRANCH  47 178
ENDBRANCH  45  47
ENDBRANCH  42  43
BRANCH  42 182
ATOM    182  CB  TRP     5      66.037  40.118  41.670  1.00  0.00     0.059 C 
BRANCH 182 183
ATOM    183  CG  TRP     5      66.240  39.433  40.311  1.00  0.00    -0.016 A 
ATOM    184  CD1 TRP     5      66.341  38.131  40.042  1.00  0.00     0.097 A 
ATOM    185  NE1 TRP     5      66.287  37.933  38.725  1.00  0.00    -0.365 N 
ATOM    186  CE2 TRP     5      66.173  39.109  38.110  1.00  0.00     0.042 A 
ATOM    187  HE1 TRP     5      66.268  37.039  38.280  1.00 99.99     0.165 HD
ATOM    188  CD2 TRP     5      66.154  40.085  39.093  1.00  0.00    -0.001 A 
ATOM    189  CZ2 TRP     5      65.996  39.465  36.779  1.00  0.00     0.030 A 
ATOM    190  CE3 TRP     5      65.960  41.418  38.761  1.00  0.00     0.014 A 
ATOM    191  CZ3 TRP     5      65.769  41.777  37.429  1.00  0.00     0.001 A 
ATOM    192  CH2 TRP     5      65.792  40.796  36.440  1.00  0.00     0.002 A 
ENDBRANCH 182 183
ENDBRANCH  42 182
ENDBRANCH  39  42
ENDBRANCH  34  38
ENDBRANCH  31  34
ENDBRANCH  17  30
ENDBRANCH  15  17
ENDBRANCH   8  13
ENDBRANCH   5   6
BRANCH   5 193
ATOM    193  CB  ARG     1      61.699  42.080  38.387  1.00  0.00     0.042 C 
BRANCH 193 194
ATOM    194  CG  ARG     1      62.320  40.669  38.342  1.00  0.00     0.027 C 
BRANCH 194 195
ATOM    195  CD  ARG     1      62.648  40.122  39.740  1.00  0.00     0.116 C 
BRANCH 195 196
ATOM    196  NE  ARG     1      61.607  39.183  40.208  1.00  0.00    -0.212 N 
ATOM    197  HE  ARG     1      60.713  39.593  40.379  1.00 99.99     0.178 HD
ATOM    198  CZ  ARG     1      61.749  37.868  40.440  1.00  0.00     0.666 C 
ATOM    199  NH2 ARG     1      60.728  37.143  40.879  1.00  0.00    -0.235 N 
ATOM    200  NH1 ARG     1      62.901  37.235  40.254  1.00  0.00    -0.235 N 
ATOM    201 2HH2 ARG     1      59.838  37.562  41.053  1.00 99.99     0.174 HD
ATOM    202 1HH2 ARG     1      60.854  36.166  41.042  1.00 99.99     0.174 HD
ATOM    203 1HH1 ARG     1      62.974  36.257  40.432  1.00 99.99     0.174 HD
ATOM    204 2HH1 ARG     1      63.692  37.752  39.931  1.00 99.99     0.174 HD
ENDBRANCH 195 196
ENDBRANCH 194 195
ENDBRANCH 193 194
ENDBRANCH   5 193
ENDBRANCH   1   5
TORSDOF 83
ENDMDL
MODEL 4
REMARK VINA RESULT:      -3.6      1.963      3.759
REMARK WARNING: 32 MAX_TORS EXCEEDED!!!
REMARK  83 active torsions:
REMARK  status: ('A' for Active; 'I' for Inactive)
REMARK    1  A    between atoms: N_1  and  CA_2 
REMARK    2  A    between atoms: CA_2  and  C_3 
REMARK    3  A    between atoms: CA_2  and  CB_5 
REMARK       I    between atoms: C_3  and  N_20 
REMARK    4  A    between atoms: CB_5  and  CG_6 
REMARK    5  A    between atoms: CG_6  and  CD_7 
REMARK    6  A    between atoms: CD_7  and  NE_8 
REMARK       I    between atoms: NE_8  and  CZ_9 
REMARK       I    between atoms: CZ_9  and  NH2_11 
REMARK       I    between atoms: CZ_9  and  NH1_10 
REMARK    7  A    between atoms: CA_21  and  C_22 
REMARK       I    between atoms: C_22  and  N_27 
REMARK    8  A    between atoms: N_27  and  CA_28 
REMARK    9  A    between atoms: CA_28  and  CB_31 
REMARK   10  A    between atoms: CA_28  and  C_29 
REMARK       I    between atoms: C_29  and  N_44 
REMARK   11  A    between atoms: CB_31  and  CG_32 
REMARK   12  A    between atoms: CG_32  and  CD_33 
REMARK   13  A    between atoms: CD_33  and  NE_34 
REMARK       I    between atoms: NE_34  and  CZ_35 
REMARK       I    between atoms: CZ_35  and  NH1_36 
REMARK       I    between atoms: CZ_35  and  NH2_37 
REMARK   14  A    between atoms: N_44  and  CA_45 
REMARK   15  A    between atoms: CA_45  and  CB_48 
REMARK   16  A    between atoms: CA_45  and  C_46 
REMARK       I    between atoms: C_46  and  N_52 
REMARK   17  A    between atoms: CB_48  and  SG_49 
REMARK   18  A    between atoms: N_52  and  CA_53 
REMARK   19  A    between atoms: CA_53  and  C_54 
REMARK   20  A    between atoms: CA_53  and  CB_56 
REMARK       I    between atoms: C_54  and  N_68 
REMARK   21  A    between atoms: CB_56  and  CG_57 
REMARK   22  A    between atoms: N_68  and  CA_69 
REMARK   23  A    between atoms: CA_69  and  C_70 
REMARK   24  A    between atoms: CA_69  and  CB_72 
REMARK       I    between atoms: C_70  and  N_77 
REMARK   25  A    between atoms: CB_72  and  CG1_73 
REMARK   26  A    between atoms: N_77  and  CA_78 
REMARK   27  A    between atoms: CA_78  and  CB_81 
REMARK   28  A    between atoms: CA_78  and  C_79 
REMARK       I    between atoms: C_79  and  N_90 
REMARK   29  A    between atoms: CB_81  and  CG_82 
REMARK   30  A    between atoms: CG_82  and  CD_83 
REMARK   31  A    between atoms: CD_83  and  CE_84 
REMARK   32  A    between atoms: CE_84  and  NZ_85 
REMARK   33  A    between atoms: N_90  and  CA_91 
REMARK   34  A    between atoms: CA_91  and  CB_94 
REMARK   35  A    between atoms: CA_91  and  C_92 
REMARK       I    between atoms: C_92  and  N_99 
REMARK   36  A    between atoms: CB_94  and  CG1_95 
REMARK   37  A    between atoms: N_99  and  CA_100 
REMARK   38  A    between atoms: CA_100  and  CB_103 
REMARK   39  A    between atoms: CA_100  and  C_101 
REMARK       I    between atoms: C_101  and  N_112 
REMARK   40  A    between atoms: CB_103  and  CG_104 
REMARK   41  A    between atoms: CG_104  and  CD_105 
REMARK   42  A    between atoms: CD_105  and  CE_106 
REMARK   43  A    between atoms: CE_106  and  NZ_107 
REMARK   44  A    between atoms: N_112  and  CA_113 
REMARK   45  A    between atoms: CA_113  and  C_114 
REMARK   46  A    between atoms: CA_113  and  CB_116 
REMARK       I    between atoms: C_114  and  N_124 
REMARK   47  A    between atoms: CB_116  and  CG_117 
REMARK   48  A    between atoms: N_124  and  CA_125 
REMARK   49  A    between atoms: CA_125  and  C_126 
REMARK   50  A    between atoms: CA_125  and  CB_128 
REMARK       I    between atoms: C_126  and  N_141 
REMARK   51  A    between atoms: CB_128  and  CG_129 
REMARK   52  A    between atoms: CG_129  and  CD_130 
REMARK   53  A    between atoms: CD_130  and  NE_131 
REMARK       I    between atoms: NE_131  and  CZ_132 
REMARK       I    between atoms: CZ_132  and  NH1_133 
REMARK   54  A    between atoms: N_141  and  CA_142 
REMARK   55  A    between atoms: CA_142  and  C_143 
REMARK   56  A    between atoms: CA_142  and  CB_145 
REMARK       I    between atoms: C_143  and  N_149 
REMARK   57  A    between atoms: CB_145  and  SG_146 
REMARK   58  A    between atoms: N_149  and  CA_150 
REMARK   59  A    between atoms: CA_150  and  C_151 
REMARK   60  A    between atoms: CA_150  and  CB_153 
REMARK       I    between atoms: C_151  and  N_162 
REMARK   61  A    between atoms: CB_153  and  CG_154 
REMARK   62  A    between atoms: CG_154  and  CD_155 
REMARK   63  A    between atoms: CD_155  and  CE_156 
REMARK   64  A    between atoms: CE_156  and  NZ_157 
REMARK   65  A    between atoms: N_162  and  CA_163 
REMARK   66  A    between atoms: CA_163  and  C_164 
REMARK   67  A    between atoms: CA_163  and  CB_166 
REMARK       I    between atoms: C_164  and  N_170 
REMARK   68  A    between atoms: CB_166  and  OG_167 
REMARK   69  A    between atoms: N_170  and  CA_171 
REMARK   70  A    between atoms: CA_171  and  CB_174 
REMARK   71  A    between atoms: CA_171  and  C_172 
REMARK       I    between atoms: C_172  and  N_179 
REMARK   72  A    between atoms: CB_174  and  CG_175 
REMARK   73  A    between atoms: N_179  and  CA_180 
REMARK   74  A    between atoms: CA_180  and  C_181 
REMARK   75  A    between atoms: CA_180  and  CB_183 
REMARK       I    between atoms: C_181  and  N_192 
REMARK   76  A    between atoms: CB_183  and  CG_184 
REMARK   77  A    between atoms: CG_184  and  CD_185 
REMARK   78  A    between atoms: CD_185  and  CE_186 
REMARK   79  A    between atoms: CE_186  and  NZ_187 
REMARK   80  A    between atoms: N_192  and  CA_193 
REMARK   81  A    between atoms: CA_193  and  C_194 
REMARK   82  A    between atoms: CA_193  and  CB_196 
REMARK   83  A    between atoms: CB_196  and  CG_197 
ROOT
ATOM      1  N   ARG     1      57.659  38.991  38.401  1.00  0.00    -0.058 N 
ATOM      2  H1  ARG     1      57.670  39.982  38.273  1.00 99.99     0.276 HD
ATOM      3  H2  ARG     1      58.084  38.791  39.267  1.00 99.99     0.276 HD
ATOM      4  H3  ARG     1      58.232  38.563  37.721  1.00 99.99     0.276 HD
ENDROOT
BRANCH   1   5
ATOM      5  CA  ARG     1      56.240  38.538  38.349  1.00  0.00     0.255 C 
BRANCH   5   6
ATOM      6  C   ARG     1      55.821  38.096  39.770  1.00  0.00     0.262 C 
ATOM      7  N   PRO     2      56.454  37.060  40.337  1.00  0.00    -0.312 N 
ATOM      8  CA  PRO     2      56.266  36.729  41.763  1.00  0.00     0.163 C 
ATOM      9  CD  PRO     2      57.346  36.085  39.679  1.00  0.00     0.105 C 
ATOM     10  CB  PRO     2      56.963  35.380  41.948  1.00  0.00     0.034 C 
ATOM     11  CG  PRO     2      58.021  35.356  40.843  1.00  0.00     0.027 C 
ATOM     12  O   ARG     1      54.821  38.606  40.284  1.00  0.00    -0.270 OA
BRANCH   8  13
ATOM     13  C   PRO     2      56.867  37.843  42.633  1.00  0.00     0.251 C 
ATOM     14  O   PRO     2      56.146  38.701  43.139  1.00  0.00    -0.271 OA
ATOM     15  N   ARG     3      58.156  37.701  42.930  1.00  0.00    -0.338 N 
ATOM     16  H   ARG     3      58.682  36.896  42.647  1.00 99.99     0.164 HD
BRANCH  15  17
ATOM     17  CA  ARG     3      58.912  38.691  43.718  1.00  0.00     0.159 C 
BRANCH  17  18
ATOM     18  CB  ARG     3      60.198  38.057  44.278  1.00  0.00     0.034 C 
BRANCH  18  19
ATOM     19  CG  ARG     3      60.247  36.544  44.035  1.00  0.00     0.027 C 
BRANCH  19  20
ATOM     20  CD  ARG     3      61.674  35.999  43.905  1.00  0.00     0.116 C 
BRANCH  20  21
ATOM     21  NE  ARG     3      62.327  36.498  42.683  1.00  0.00    -0.212 N 
ATOM     22  CZ  ARG     3      63.505  37.125  42.612  1.00  0.00     0.666 C 
ATOM     23  NH1 ARG     3      64.232  37.387  43.693  1.00  0.00    -0.235 N 
ATOM     24  NH2 ARG     3      64.011  37.463  41.435  1.00  0.00    -0.235 N 
ATOM     25 1HH1 ARG     3      65.110  37.850  43.613  1.00 99.99     0.174 HD
ATOM     26 2HH1 ARG     3      63.884  37.107  44.587  1.00 99.99     0.174 HD
ATOM     27 1HH2 ARG     3      64.895  37.925  41.394  1.00 99.99     0.174 HD
ATOM     28 2HH2 ARG     3      63.519  37.250  40.592  1.00 99.99     0.174 HD
ATOM     29  HE  ARG     3      61.814  36.352  41.839  1.00 99.99     0.178 HD
ENDBRANCH  20  21
ENDBRANCH  19  20
ENDBRANCH  18  19
ENDBRANCH  17  18
BRANCH  17  30
ATOM     30  C   ARG     3      59.275  39.880  42.828  1.00  0.00     0.251 C 
ATOM     31  N   CYS     4      58.484  40.941  42.971  1.00  0.00    -0.337 N 
ATOM     32  H   CYS     4      57.656  40.899  43.527  1.00 99.99     0.164 HD
ATOM     33  O   ARG     3      60.195  39.804  42.011  1.00  0.00    -0.271 OA
BRANCH  31  34
ATOM     34  CA  CYS     4      58.701  42.232  42.295  1.00  0.00     0.170 C 
BRANCH  34  35
ATOM     35  CB  CYS     4      60.111  42.742  42.628  1.00  0.00     0.085 C 
BRANCH  35  36
ATOM     36  SG  CYS     4      60.284  43.535  44.269  1.00  0.00    -0.165 SA
ATOM     37  HG  CYS     4      61.344  42.828  44.651  1.00 99.99     0.102 HD
ENDBRANCH  35  36
ENDBRANCH  34  35
BRANCH  34  38
ATOM     38  C   CYS     4      58.620  42.053  40.771  1.00  0.00     0.252 C 
ATOM     39  N   TRP     5      59.673  42.494  40.091  1.00  0.00    -0.337 N 
ATOM     40  H   TRP     5      60.398  43.029  40.521  1.00 99.99     0.164 HD
ATOM     41  O   CYS     4      57.628  41.550  40.243  1.00  0.00    -0.271 OA
BRANCH  39  42
ATOM     42  CA  TRP     5      59.838  42.288  38.641  1.00  0.00     0.164 C 
BRANCH  42  43
ATOM     43  C   TRP     5      60.809  41.134  38.405  1.00  0.00     0.251 C 
ATOM     44  O   TRP     5      60.511  39.974  38.701  1.00  0.00    -0.271 OA
ATOM     45  N   ILE     6      61.846  41.454  37.634  1.00  0.00    -0.338 N 
ATOM     46  H   ILE     6      61.942  42.379  37.272  1.00 99.99     0.164 HD
BRANCH  45  47
ATOM     47  CA  ILE     6      62.915  40.508  37.259  1.00  0.00     0.159 C 
BRANCH  47  48
ATOM     48  C   ILE     6      64.310  41.047  37.633  1.00  0.00     0.251 C 
ATOM     49  N   LYS     7      65.306  40.159  37.759  1.00  0.00    -0.338 N 
ATOM     50  H   LYS     7      65.141  39.180  37.650  1.00 99.99     0.164 HD
ATOM     51  O   ILE     6      64.474  42.254  37.813  1.00  0.00    -0.271 OA
BRANCH  49  52
ATOM     52  CA  LYS     7      66.692  40.516  38.120  1.00  0.00     0.159 C 
BRANCH  52  53
ATOM     53  CB  LYS     7      67.297  41.278  36.930  1.00  0.00     0.032 C 
BRANCH  53  54
ATOM     54  CG  LYS     7      68.745  40.881  36.624  1.00  0.00     0.004 C 
BRANCH  54  55
ATOM     55  CD  LYS     7      69.551  42.089  36.148  1.00  0.00     0.032 C 
BRANCH  55  56
ATOM     56  CE  LYS     7      70.154  42.842  37.335  1.00  0.00     0.206 C 
BRANCH  56  57
ATOM     57  NZ  LYS     7      70.461  41.921  38.441  1.00  0.00    -0.064 N 
ATOM     58  HZ3 LYS     7      70.106  41.012  38.226  1.00 99.99     0.275 HD
ATOM     59  HZ2 LYS     7      70.037  42.257  39.280  1.00 99.99     0.275 HD
ATOM     60  HZ1 LYS     7      71.453  41.871  38.565  1.00 99.99     0.275 HD
ENDBRANCH  56  57
ENDBRANCH  55  56
ENDBRANCH  54  55
ENDBRANCH  53  54
ENDBRANCH  52  53
BRANCH  52  61
ATOM     61  C   LYS     7      66.781  41.301  39.452  1.00  0.00     0.251 C 
ATOM     62  O   LYS     7      67.648  42.150  39.667  1.00  0.00    -0.271 OA
ATOM     63  N   ILE     8      65.867  40.951  40.353  1.00  0.00    -0.338 N 
ATOM     64  H   ILE     8      65.145  40.297  40.098  1.00 99.99     0.164 HD
BRANCH  63  65
ATOM     65  CA  ILE     8      65.668  41.551  41.690  1.00  0.00     0.159 C 
BRANCH  65  66
ATOM     66  CB  ILE     8      64.164  41.874  41.909  1.00  0.00     0.029 C 
ATOM     67  CG2 ILE     8      63.233  40.937  41.114  1.00  0.00     0.002 C 
BRANCH  66  68
ATOM     68  CG1 ILE     8      63.822  41.934  43.409  1.00  0.00     0.002 C 
ATOM     69  CD  ILE     8      62.948  40.784  43.932  1.00  0.00     0.000 C 
ENDBRANCH  66  68
ENDBRANCH  65  66
BRANCH  65  70
ATOM     70  C   ILE     8      66.231  40.578  42.747  1.00  0.00     0.251 C 
ATOM     71  O   ILE     8      66.215  39.365  42.546  1.00  0.00    -0.271 OA
ATOM     72  N   LYS     9      66.734  41.119  43.856  1.00  0.00    -0.338 N 
ATOM     73  H   LYS     9      66.761  42.107  44.001  1.00 99.99     0.164 HD
BRANCH  72  74
ATOM     74  CA  LYS     9      67.317  40.307  44.944  1.00  0.00     0.159 C 
BRANCH  74  75
ATOM     75  CB  LYS     9      68.464  41.078  45.622  1.00  0.00     0.032 C 
BRANCH  75  76
ATOM     76  CG  LYS     9      69.022  42.260  44.826  1.00  0.00     0.004 C 
BRANCH  76  77
ATOM     77  CD  LYS     9      69.090  43.486  45.741  1.00  0.00     0.032 C 
BRANCH  77  78
ATOM     78  CE  LYS     9      68.016  43.457  46.831  1.00  0.00     0.206 C 
BRANCH  78  79
ATOM     79  NZ  LYS     9      67.029  44.521  46.606  1.00  0.00    -0.064 N 
ATOM     80  HZ3 LYS     9      66.557  44.362  45.738  1.00 99.99     0.275 HD
ATOM     81  HZ2 LYS     9      67.491  45.408  46.573  1.00 99.99     0.275 HD
ATOM     82  HZ1 LYS     9      66.360  44.523  47.350  1.00 99.99     0.275 HD
ENDBRANCH  78  79
ENDBRANCH  77  78
ENDBRANCH  76  77
ENDBRANCH  75  76
ENDBRANCH  74  75
BRANCH  74  83
ATOM     83  C   LYS     9      66.247  39.937  45.987  1.00  0.00     0.251 C 
ATOM     84  N   PHE    10      66.223  40.674  47.099  1.00  0.00    -0.337 N 
ATOM     85  H   PHE    10      66.772  41.503  47.212  1.00 99.99     0.164 HD
ATOM     86  O   LYS     9      65.465  39.004  45.799  1.00  0.00    -0.271 OA
BRANCH  84  87
ATOM     87  CA  PHE    10      65.269  40.372  48.188  1.00  0.00     0.164 C 
BRANCH  87  88
ATOM     88  C   PHE    10      64.116  41.381  48.283  1.00  0.00     0.251 C 
ATOM     89  O   PHE    10      63.239  41.447  47.419  1.00  0.00    -0.271 OA
ATOM     90  N   ARG    11      64.141  42.149  49.373  1.00  0.00    -0.338 N 
ATOM     91  H   ARG    11      64.868  42.051  50.052  1.00 99.99     0.164 HD
BRANCH  90  92
ATOM     92  CA  ARG    11      63.120  43.159  49.701  1.00  0.00     0.159 C 
BRANCH  92  93
ATOM     93  C   ARG    11      61.690  42.585  49.668  1.00  0.00     0.251 C 
ATOM     94  O   ARG    11      61.259  41.858  50.567  1.00  0.00    -0.271 OA
ATOM     95  N   CYS    12      60.949  42.949  48.624  1.00  0.00    -0.337 N 
ATOM     96  H   CYS    12      61.242  43.687  48.011  1.00 99.99     0.164 HD
BRANCH  95  97
ATOM     97  CA  CYS    12      59.583  42.435  48.432  1.00  0.00     0.170 C 
BRANCH  97  98
ATOM     98  C   CYS    12      59.513  41.158  47.587  1.00  0.00     0.252 C 
ATOM     99  O   CYS    12      60.014  41.097  46.464  1.00  0.00    -0.271 OA
ATOM    100  N   LYS    13      59.022  40.108  48.254  1.00  0.00    -0.337 N 
ATOM    101  H   LYS    13      58.950  40.151  49.248  1.00 99.99     0.164 HD
BRANCH 100 102
ATOM    102  CA  LYS    13      58.700  38.809  47.639  1.00  0.00     0.159 C 
BRANCH 102 103
ATOM    103  C   LYS    13      57.203  38.462  47.527  1.00  0.00     0.251 C 
ATOM    104  O   LYS    13      56.659  37.818  48.423  1.00  0.00    -0.271 OA
ATOM    105  N   SER    14      56.568  38.785  46.397  1.00  0.00    -0.336 N 
ATOM    106  H   SER    14      57.015  39.244  45.630  1.00 99.99     0.164 HD
BRANCH 105 107
ATOM    107  CA  SER    14      55.109  38.637  46.211  1.00  0.00     0.189 C 
BRANCH 107 108
ATOM    108  C   SER    14      54.209  39.473  47.143  1.00  0.00     0.253 C 
ATOM    109  O   SER    14      53.894  40.631  46.863  1.00  0.00    -0.270 OA
ATOM    110  N   LEU    15      53.855  38.891  48.287  1.00  0.00    -0.337 N 
ATOM    111  H   LEU    15      54.110  37.949  48.498  1.00 99.99     0.164 HD
BRANCH 110 112
ATOM    112  CA  LEU    15      53.188  39.609  49.387  1.00  0.00     0.159 C 
BRANCH 112 113
ATOM    113  CB  LEU    15      52.343  38.680  50.272  1.00  0.00     0.032 C 
BRANCH 113 114
ATOM    114  CG  LEU    15      50.970  39.241  50.646  1.00  0.00     0.002 C 
ATOM    115  CD2 LEU    15      50.767  39.262  52.166  1.00  0.00     0.000 C 
ATOM    116  CD1 LEU    15      49.892  38.371  49.997  1.00  0.00     0.000 C 
ENDBRANCH 113 114
ENDBRANCH 112 113
BRANCH 112 117
ATOM    117  C   LEU    15      54.232  40.278  50.271  1.00  0.00     0.251 C 
ATOM    118  N   LYS    16      54.814  39.461  51.141  1.00  0.00    -0.338 N 
ATOM    119  H   LYS    16      54.606  38.484  51.178  1.00 99.99     0.164 HD
ATOM    120  O   LEU    15      54.521  41.467  50.120  1.00  0.00    -0.271 OA
BRANCH 118 121
ATOM    121  CA  LYS    16      55.882  39.897  52.041  1.00  0.00     0.159 C 
BRANCH 121 122
ATOM    122  C   LYS    16      56.840  38.731  52.312  1.00  0.00     0.251 C 
ATOM    123  O   LYS    16      56.766  37.660  51.707  1.00  0.00    -0.271 OA
ATOM    124  N   PHE    17      57.860  39.109  53.065  1.00  0.00    -0.336 N 
ATOM    125  H   PHE    17      58.047  40.082  53.214  1.00 99.99     0.164 HD
BRANCH 124 126
ATOM    126  CA  PHE    17      58.797  38.217  53.758  1.00  0.00     0.172 C 
BRANCH 126 127
ATOM    127  C   PHE    17      58.744  38.627  55.247  1.00  0.00     0.207 C 
ATOM    128  O   PHE    17      58.815  37.717  56.099  1.00 99.99    -0.646 OA
ATOM    129  OXT PHE    17      58.311  39.787  55.460  1.00 99.99    -0.646 OA
ENDBRANCH 126 127
BRANCH 126 130
ATOM    130  CB  PHE    17      60.158  38.513  53.126  1.00  0.00     0.058 C 
BRANCH 130 131
ATOM    131  CG  PHE    17      60.740  37.377  52.277  1.00  0.00    -0.044 A 
ATOM    132  CD1 PHE    17      62.114  37.238  52.160  1.00  0.00     0.008 A 
ATOM    133  CE1 PHE    17      62.650  36.091  51.594  1.00  0.00     0.001 A 
ATOM    134  CZ  PHE    17      61.806  35.071  51.154  1.00  0.00     0.000 A 
ATOM    135  CE2 PHE    17      60.423  35.220  51.266  1.00  0.00     0.001 A 
ATOM    136  CD2 PHE    17      59.895  36.378  51.825  1.00  0.00     0.008 A 
ENDBRANCH 130 131
ENDBRANCH 126 130
ENDBRANCH 124 126
ENDBRANCH 121 122
BRANCH 121 137
ATOM    137  CB  LYS    16      55.274  40.412  53.352  1.00  0.00     0.032 C 
BRANCH 137 138
ATOM    138  CG  LYS    16      54.225  39.437  53.891  1.00  0.00     0.004 C 
BRANCH 138 139
ATOM    139  CD  LYS    16      54.790  38.492  54.949  1.00  0.00     0.032 C 
BRANCH 139 140
ATOM    140  CE  LYS    16      54.464  37.052  54.553  1.00  0.00     0.206 C 
BRANCH 140 141
ATOM    141  NZ  LYS    16      55.684  36.245  54.438  1.00  0.00    -0.064 N 
ATOM    142  HZ2 LYS    16      56.328  36.704  53.827  1.00 99.99     0.275 HD
ATOM    143  HZ1 LYS    16      55.451  35.347  54.064  1.00 99.99     0.275 HD
ATOM    144  HZ3 LYS    16      56.097  36.133  55.342  1.00 99.99     0.275 HD
ENDBRANCH 140 141
ENDBRANCH 139 140
ENDBRANCH 138 139
ENDBRANCH 137 138
ENDBRANCH 121 137
ENDBRANCH 118 121
ENDBRANCH 112 117
ENDBRANCH 110 112
ENDBRANCH 107 108
BRANCH 107 145
ATOM    145  CB  SER    14      54.751  37.148  46.315  1.00  0.00     0.169 C 
BRANCH 145 146
ATOM    146  OG  SER    14      53.332  36.980  46.209  1.00  0.00    -0.380 OA
ATOM    147  HG  SER    14      53.103  36.791  45.251  1.00 99.99     0.211 HD
ENDBRANCH 145 146
ENDBRANCH 107 145
ENDBRANCH 105 107
ENDBRANCH 102 103
BRANCH 102 148
ATOM    148  CB  LYS    13      59.466  37.658  48.321  1.00  0.00     0.032 C 
BRANCH 148 149
ATOM    149  CG  LYS    13      60.895  38.054  48.723  1.00  0.00     0.004 C 
BRANCH 149 150
ATOM    150  CD  LYS    13      61.902  37.736  47.612  1.00  0.00     0.032 C 
BRANCH 150 151
ATOM    151  CE  LYS    13      63.240  37.261  48.179  1.00  0.00     0.206 C 
BRANCH 151 152
ATOM    152  NZ  LYS    13      64.064  36.688  47.103  1.00  0.00    -0.064 N 
ATOM    153  HZ1 LYS    13      65.029  36.866  47.288  1.00 99.99     0.275 HD
ATOM    154  HZ2 LYS    13      63.902  35.705  47.042  1.00 99.99     0.275 HD
ATOM    155  HZ3 LYS    13      63.806  37.123  46.238  1.00 99.99     0.275 HD
ENDBRANCH 151 152
ENDBRANCH 150 151
ENDBRANCH 149 150
ENDBRANCH 148 149
ENDBRANCH 102 148
ENDBRANCH 100 102
ENDBRANCH  97  98
BRANCH  97 156
ATOM    156  CB  CYS    12      58.681  43.511  47.817  1.00  0.00     0.085 C 
BRANCH 156 157
ATOM    157  SG  CYS    12      56.936  42.967  47.733  1.00  0.00    -0.165 SA
ATOM    158  HG  CYS    12      57.168  41.685  47.995  1.00 99.99     0.102 HD
ENDBRANCH 156 157
ENDBRANCH  97 156
ENDBRANCH  95  97
ENDBRANCH  92  93
BRANCH  92 159
ATOM    159  CB  ARG    11      63.286  44.331  48.721  1.00  0.00     0.034 C 
BRANCH 159 160
ATOM    160  CG  ARG    11      62.953  45.683  49.355  1.00  0.00     0.027 C 
BRANCH 160 161
ATOM    161  CD  ARG    11      64.155  46.211  50.141  1.00  0.00     0.116 C 
BRANCH 161 162
ATOM    162  NE  ARG    11      65.025  46.988  49.242  1.00  0.00    -0.212 N 
ATOM    163  HE  ARG    11      64.557  47.431  48.482  1.00 99.99     0.178 HD
ATOM    164  CZ  ARG    11      66.350  47.143  49.353  1.00  0.00     0.666 C 
ATOM    165  NH1 ARG    11      67.049  46.579  50.331  1.00  0.00    -0.235 N 
ATOM    166  NH2 ARG    11      67.012  47.869  48.465  1.00  0.00    -0.235 N 
ATOM    167 2HH1 ARG    11      66.569  46.010  51.000  1.00 99.99     0.174 HD
ATOM    168 1HH1 ARG    11      68.034  46.709  50.391  1.00 99.99     0.174 HD
ATOM    169 1HH2 ARG    11      68.000  47.976  48.557  1.00 99.99     0.174 HD
ATOM    170 2HH2 ARG    11      66.533  48.303  47.704  1.00 99.99     0.174 HD
ENDBRANCH 161 162
ENDBRANCH 160 161
ENDBRANCH 159 160
ENDBRANCH  92 159
ENDBRANCH  90  92
ENDBRANCH  87  88
BRANCH  87 171
ATOM    171  CB  PHE    10      65.986  40.170  49.531  1.00  0.00     0.056 C 
BRANCH 171 172
ATOM    172  CG  PHE    10      66.260  38.705  49.917  1.00  0.00    -0.044 A 
ATOM    173  CD2 PHE    10      65.864  38.214  51.147  1.00  0.00     0.008 A 
ATOM    174  CE2 PHE    10      66.105  36.890  51.481  1.00  0.00     0.001 A 
ATOM    175  CZ  PHE    10      66.746  36.045  50.572  1.00  0.00     0.000 A 
ATOM    176  CE1 PHE    10      67.160  36.553  49.338  1.00  0.00     0.001 A 
ATOM    177  CD1 PHE    10      66.909  37.881  49.014  1.00  0.00     0.008 A 
ENDBRANCH 171 172
ENDBRANCH  87 171
ENDBRANCH  84  87
ENDBRANCH  74  83
ENDBRANCH  72  74
ENDBRANCH  65  70
ENDBRANCH  63  65
ENDBRANCH  52  61
ENDBRANCH  49  52
ENDBRANCH  47  48
BRANCH  47 178
ATOM    178  CB  ILE     6      62.789  40.126  35.766  1.00  0.00     0.029 C 
ATOM    179  CG2 ILE     6      61.889  38.886  35.642  1.00  0.00     0.002 C 
BRANCH 178 180
ATOM    180  CG1 ILE     6      62.321  41.307  34.895  1.00  0.00     0.002 C 
ATOM    181  CD  ILE     6      60.932  41.127  34.267  1.00  0.00     0.000 C 
ENDBRANCH 178 180
ENDBRANCH  47 178
ENDBRANCH  45  47
ENDBRANCH  42  43
BRANCH  42 182
ATOM    182  CB  TRP     5      60.366  43.562  37.969  1.00  0.00     0.059 C 
BRANCH 182 183
ATOM    183  CG  TRP     5      59.697  43.938  36.638  1.00  0.00    -0.016 A 
ATOM    184  CD1 TRP     5      58.406  43.883  36.311  1.00  0.00     0.097 A 
ATOM    185  NE1 TRP     5      58.205  44.501  35.147  1.00  0.00    -0.365 N 
ATOM    186  CE2 TRP     5      59.370  44.953  34.684  1.00  0.00     0.042 A 
ATOM    187  HE1 TRP     5      57.312  44.657  34.728  1.00 99.99     0.165 HD
ATOM    188  CD2 TRP     5      60.341  44.598  35.606  1.00  0.00    -0.001 A 
ATOM    189  CZ2 TRP     5      59.712  45.724  33.581  1.00  0.00     0.030 A 
ATOM    190  CE3 TRP     5      61.657  45.006  35.437  1.00  0.00     0.014 A 
ATOM    191  CZ3 TRP     5      62.001  45.790  34.340  1.00  0.00     0.001 A 
ATOM    192  CH2 TRP     5      61.025  46.144  33.411  1.00  0.00     0.002 A 
ENDBRANCH 182 183
ENDBRANCH  42 182
ENDBRANCH  39  42
ENDBRANCH  34  38
ENDBRANCH  31  34
ENDBRANCH  17  30
ENDBRANCH  15  17
ENDBRANCH   8  13
ENDBRANCH   5   6
BRANCH   5 193
ATOM    193  CB  ARG     1      56.084  37.359  37.366  1.00  0.00     0.042 C 
BRANCH 193 194
ATOM    194  CG  ARG     1      55.665  37.749  35.934  1.00  0.00     0.027 C 
BRANCH 194 195
ATOM    195  CD  ARG     1      54.761  38.991  35.899  1.00  0.00     0.116 C 
BRANCH 195 196
ATOM    196  NE  ARG     1      55.462  40.149  35.305  1.00  0.00    -0.212 N 
ATOM    197  HE  ARG     1      56.425  40.235  35.556  1.00 99.99     0.178 HD
ATOM    198  CZ  ARG     1      54.938  41.086  34.499  1.00  0.00     0.666 C 
ATOM    199  NH2 ARG     1      55.682  42.088  34.050  1.00  0.00    -0.235 N 
ATOM    200  NH1 ARG     1      53.666  41.064  34.120  1.00  0.00    -0.235 N 
ATOM    201 2HH2 ARG     1      56.643  42.170  34.310  1.00 99.99     0.174 HD
ATOM    202 1HH2 ARG     1      55.274  42.773  33.449  1.00 99.99     0.174 HD
ATOM    203 1HH1 ARG     1      53.307  41.773  33.517  1.00 99.99     0.174 HD
ATOM    204 2HH1 ARG     1      53.075  40.328  34.445  1.00 99.99     0.174 HD
ENDBRANCH 195 196
ENDBRANCH 194 195
ENDBRANCH 193 194
ENDBRANCH   5 193
ENDBRANCH   1   5
TORSDOF 83
ENDMDL
MODEL 5
REMARK VINA RESULT:      -3.4      2.618      9.473
REMARK WARNING: 32 MAX_TORS EXCEEDED!!!
REMARK  83 active torsions:
REMARK  status: ('A' for Active; 'I' for Inactive)
REMARK    1  A    between atoms: N_1  and  CA_2 
REMARK    2  A    between atoms: CA_2  and  C_3 
REMARK    3  A    between atoms: CA_2  and  CB_5 
REMARK       I    between atoms: C_3  and  N_20 
REMARK    4  A    between atoms: CB_5  and  CG_6 
REMARK    5  A    between atoms: CG_6  and  CD_7 
REMARK    6  A    between atoms: CD_7  and  NE_8 
REMARK       I    between atoms: NE_8  and  CZ_9 
REMARK       I    between atoms: CZ_9  and  NH2_11 
REMARK       I    between atoms: CZ_9  and  NH1_10 
REMARK    7  A    between atoms: CA_21  and  C_22 
REMARK       I    between atoms: C_22  and  N_27 
REMARK    8  A    between atoms: N_27  and  CA_28 
REMARK    9  A    between atoms: CA_28  and  CB_31 
REMARK   10  A    between atoms: CA_28  and  C_29 
REMARK       I    between atoms: C_29  and  N_44 
REMARK   11  A    between atoms: CB_31  and  CG_32 
REMARK   12  A    between atoms: CG_32  and  CD_33 
REMARK   13  A    between atoms: CD_33  and  NE_34 
REMARK       I    between atoms: NE_34  and  CZ_35 
REMARK       I    between atoms: CZ_35  and  NH1_36 
REMARK       I    between atoms: CZ_35  and  NH2_37 
REMARK   14  A    between atoms: N_44  and  CA_45 
REMARK   15  A    between atoms: CA_45  and  CB_48 
REMARK   16  A    between atoms: CA_45  and  C_46 
REMARK       I    between atoms: C_46  and  N_52 
REMARK   17  A    between atoms: CB_48  and  SG_49 
REMARK   18  A    between atoms: N_52  and  CA_53 
REMARK   19  A    between atoms: CA_53  and  C_54 
REMARK   20  A    between atoms: CA_53  and  CB_56 
REMARK       I    between atoms: C_54  and  N_68 
REMARK   21  A    between atoms: CB_56  and  CG_57 
REMARK   22  A    between atoms: N_68  and  CA_69 
REMARK   23  A    between atoms: CA_69  and  C_70 
REMARK   24  A    between atoms: CA_69  and  CB_72 
REMARK       I    between atoms: C_70  and  N_77 
REMARK   25  A    between atoms: CB_72  and  CG1_73 
REMARK   26  A    between atoms: N_77  and  CA_78 
REMARK   27  A    between atoms: CA_78  and  CB_81 
REMARK   28  A    between atoms: CA_78  and  C_79 
REMARK       I    between atoms: C_79  and  N_90 
REMARK   29  A    between atoms: CB_81  and  CG_82 
REMARK   30  A    between atoms: CG_82  and  CD_83 
REMARK   31  A    between atoms: CD_83  and  CE_84 
REMARK   32  A    between atoms: CE_84  and  NZ_85 
REMARK   33  A    between atoms: N_90  and  CA_91 
REMARK   34  A    between atoms: CA_91  and  CB_94 
REMARK   35  A    between atoms: CA_91  and  C_92 
REMARK       I    between atoms: C_92  and  N_99 
REMARK   36  A    between atoms: CB_94  and  CG1_95 
REMARK   37  A    between atoms: N_99  and  CA_100 
REMARK   38  A    between atoms: CA_100  and  CB_103 
REMARK   39  A    between atoms: CA_100  and  C_101 
REMARK       I    between atoms: C_101  and  N_112 
REMARK   40  A    between atoms: CB_103  and  CG_104 
REMARK   41  A    between atoms: CG_104  and  CD_105 
REMARK   42  A    between atoms: CD_105  and  CE_106 
REMARK   43  A    between atoms: CE_106  and  NZ_107 
REMARK   44  A    between atoms: N_112  and  CA_113 
REMARK   45  A    between atoms: CA_113  and  C_114 
REMARK   46  A    between atoms: CA_113  and  CB_116 
REMARK       I    between atoms: C_114  and  N_124 
REMARK   47  A    between atoms: CB_116  and  CG_117 
REMARK   48  A    between atoms: N_124  and  CA_125 
REMARK   49  A    between atoms: CA_125  and  C_126 
REMARK   50  A    between atoms: CA_125  and  CB_128 
REMARK       I    between atoms: C_126  and  N_141 
REMARK   51  A    between atoms: CB_128  and  CG_129 
REMARK   52  A    between atoms: CG_129  and  CD_130 
REMARK   53  A    between atoms: CD_130  and  NE_131 
REMARK       I    between atoms: NE_131  and  CZ_132 
REMARK       I    between atoms: CZ_132  and  NH1_133 
REMARK   54  A    between atoms: N_141  and  CA_142 
REMARK   55  A    between atoms: CA_142  and  C_143 
REMARK   56  A    between atoms: CA_142  and  CB_145 
REMARK       I    between atoms: C_143  and  N_149 
REMARK   57  A    between atoms: CB_145  and  SG_146 
REMARK   58  A    between atoms: N_149  and  CA_150 
REMARK   59  A    between atoms: CA_150  and  C_151 
REMARK   60  A    between atoms: CA_150  and  CB_153 
REMARK       I    between atoms: C_151  and  N_162 
REMARK   61  A    between atoms: CB_153  and  CG_154 
REMARK   62  A    between atoms: CG_154  and  CD_155 
REMARK   63  A    between atoms: CD_155  and  CE_156 
REMARK   64  A    between atoms: CE_156  and  NZ_157 
REMARK   65  A    between atoms: N_162  and  CA_163 
REMARK   66  A    between atoms: CA_163  and  C_164 
REMARK   67  A    between atoms: CA_163  and  CB_166 
REMARK       I    between atoms: C_164  and  N_170 
REMARK   68  A    between atoms: CB_166  and  OG_167 
REMARK   69  A    between atoms: N_170  and  CA_171 
REMARK   70  A    between atoms: CA_171  and  CB_174 
REMARK   71  A    between atoms: CA_171  and  C_172 
REMARK       I    between atoms: C_172  and  N_179 
REMARK   72  A    between atoms: CB_174  and  CG_175 
REMARK   73  A    between atoms: N_179  and  CA_180 
REMARK   74  A    between atoms: CA_180  and  C_181 
REMARK   75  A    between atoms: CA_180  and  CB_183 
REMARK       I    between atoms: C_181  and  N_192 
REMARK   76  A    between atoms: CB_183  and  CG_184 
REMARK   77  A    between atoms: CG_184  and  CD_185 
REMARK   78  A    between atoms: CD_185  and  CE_186 
REMARK   79  A    between atoms: CE_186  and  NZ_187 
REMARK   80  A    between atoms: N_192  and  CA_193 
REMARK   81  A    between atoms: CA_193  and  C_194 
REMARK   82  A    between atoms: CA_193  and  CB_196 
REMARK   83  A    between atoms: CB_196  and  CG_197 
ROOT
ATOM      1  N   ARG     1      68.547  43.085  40.743  1.00  0.00    -0.058 N 
ATOM      2  H1  ARG     1      68.005  43.289  39.929  1.00 99.99     0.276 HD
ATOM      3  H2  ARG     1      67.972  43.207  41.533  1.00 99.99     0.276 HD
ATOM      4  H3  ARG     1      69.268  43.752  40.837  1.00 99.99     0.276 HD
ENDROOT
BRANCH   1   5
ATOM      5  CA  ARG     1      69.048  41.686  40.620  1.00  0.00     0.255 C 
BRANCH   5   6
ATOM      6  C   ARG     1      68.244  40.981  39.504  1.00  0.00     0.262 C 
ATOM      7  N   PRO     2      68.894  40.186  38.643  1.00  0.00    -0.312 N 
ATOM      8  CA  PRO     2      68.167  39.311  37.703  1.00  0.00     0.163 C 
ATOM      9  CD  PRO     2      70.353  40.087  38.441  1.00  0.00     0.105 C 
ATOM     10  CB  PRO     2      69.244  38.761  36.766  1.00  0.00     0.034 C 
ATOM     11  CG  PRO     2      70.525  38.819  37.600  1.00  0.00     0.027 C 
ATOM     12  O   ARG     1      67.057  41.281  39.340  1.00  0.00    -0.270 OA
BRANCH   8  13
ATOM     13  C   PRO     2      67.431  38.213  38.486  1.00  0.00     0.251 C 
ATOM     14  O   PRO     2      67.190  37.125  37.965  1.00  0.00    -0.271 OA
ATOM     15  N   ARG     3      67.247  38.461  39.779  1.00  0.00    -0.338 N 
ATOM     16  H   ARG     3      67.611  39.286  40.220  1.00 99.99     0.164 HD
BRANCH  15  17
ATOM     17  CA  ARG     3      66.526  37.544  40.679  1.00  0.00     0.159 C 
BRANCH  17  18
ATOM     18  CB  ARG     3      67.433  37.119  41.847  1.00  0.00     0.034 C 
BRANCH  18  19
ATOM     19  CG  ARG     3      67.274  35.632  42.188  1.00  0.00     0.027 C 
BRANCH  19  20
ATOM     20  CD  ARG     3      67.010  35.379  43.676  1.00  0.00     0.116 C 
BRANCH  20  21
ATOM     21  NE  ARG     3      67.961  36.120  44.522  1.00  0.00    -0.212 N 
ATOM     22  CZ  ARG     3      69.174  35.707  44.902  1.00  0.00     0.666 C 
ATOM     23  NH1 ARG     3      69.659  34.521  44.550  1.00  0.00    -0.235 N 
ATOM     24  NH2 ARG     3      69.959  36.505  45.611  1.00  0.00    -0.235 N 
ATOM     25 1HH1 ARG     3      70.569  34.239  44.841  1.00 99.99     0.174 HD
ATOM     26 2HH1 ARG     3      69.097  33.919  43.985  1.00 99.99     0.174 HD
ATOM     27 1HH2 ARG     3      70.865  36.189  45.884  1.00 99.99     0.174 HD
ATOM     28 2HH2 ARG     3      69.652  37.422  45.865  1.00 99.99     0.174 HD
ATOM     29  HE  ARG     3      67.640  37.011  44.839  1.00 99.99     0.178 HD
ENDBRANCH  20  21
ENDBRANCH  19  20
ENDBRANCH  18  19
ENDBRANCH  17  18
BRANCH  17  30
ATOM     30  C   ARG     3      65.282  38.244  41.228  1.00  0.00     0.251 C 
ATOM     31  N   CYS     4      65.296  39.570  41.116  1.00  0.00    -0.337 N 
ATOM     32  H   CYS     4      66.114  40.056  40.810  1.00 99.99     0.164 HD
ATOM     33  O   ARG     3      64.384  37.603  41.778  1.00  0.00    -0.271 OA
BRANCH  31  34
ATOM     34  CA  CYS     4      64.168  40.444  41.482  1.00  0.00     0.170 C 
BRANCH  34  35
ATOM     35  CB  CYS     4      64.717  41.745  42.084  1.00  0.00     0.085 C 
BRANCH  35  36
ATOM     36  SG  CYS     4      63.855  42.330  43.590  1.00  0.00    -0.165 SA
ATOM     37  HG  CYS     4      62.854  41.456  43.523  1.00 99.99     0.102 HD
ENDBRANCH  35  36
ENDBRANCH  34  35
BRANCH  34  38
ATOM     38  C   CYS     4      63.360  40.817  40.229  1.00  0.00     0.252 C 
ATOM     39  N   TRP     5      64.054  40.848  39.095  1.00  0.00    -0.337 N 
ATOM     40  H   TRP     5      65.049  40.775  39.078  1.00 99.99     0.164 HD
ATOM     41  O   CYS     4      62.160  41.082  40.302  1.00  0.00    -0.271 OA
BRANCH  39  42
ATOM     42  CA  TRP     5      63.429  41.051  37.776  1.00  0.00     0.164 C 
BRANCH  42  43
ATOM     43  C   TRP     5      62.758  42.421  37.743  1.00  0.00     0.251 C 
ATOM     44  O   TRP     5      63.369  43.426  37.369  1.00  0.00    -0.271 OA
ATOM     45  N   ILE     6      61.435  42.375  37.888  1.00  0.00    -0.338 N 
ATOM     46  H   ILE     6      60.969  41.502  38.013  1.00 99.99     0.164 HD
BRANCH  45  47
ATOM     47  CA  ILE     6      60.566  43.568  37.885  1.00  0.00     0.159 C 
BRANCH  47  48
ATOM     48  C   ILE     6      59.704  43.650  39.160  1.00  0.00     0.251 C 
ATOM     49  N   LYS     7      59.546  42.529  39.877  1.00  0.00    -0.338 N 
ATOM     50  H   LYS     7      59.943  41.664  39.575  1.00 99.99     0.164 HD
ATOM     51  O   ILE     6      59.184  44.719  39.482  1.00  0.00    -0.271 OA
BRANCH  49  52
ATOM     52  CA  LYS     7      58.745  42.443  41.114  1.00  0.00     0.159 C 
BRANCH  52  53
ATOM     53  CB  LYS     7      58.032  41.082  41.108  1.00  0.00     0.032 C 
BRANCH  53  54
ATOM     54  CG  LYS     7      58.727  40.033  40.234  1.00  0.00     0.004 C 
BRANCH  54  55
ATOM     55  CD  LYS     7      57.721  39.009  39.709  1.00  0.00     0.032 C 
BRANCH  55  56
ATOM     56  CE  LYS     7      56.893  38.425  40.854  1.00  0.00     0.206 C 
BRANCH  56  57
ATOM     57  NZ  LYS     7      55.465  38.737  40.686  1.00  0.00    -0.064 N 
ATOM     58  HZ3 LYS     7      54.959  37.894  40.508  1.00 99.99     0.275 HD
ATOM     59  HZ2 LYS     7      55.351  39.364  39.917  1.00 99.99     0.275 HD
ATOM     60  HZ1 LYS     7      55.118  39.165  41.520  1.00 99.99     0.275 HD
ENDBRANCH  56  57
ENDBRANCH  55  56
ENDBRANCH  54  55
ENDBRANCH  53  54
ENDBRANCH  52  53
BRANCH  52  61
ATOM     61  C   LYS     7      59.588  42.681  42.391  1.00  0.00     0.251 C 
ATOM     62  O   LYS     7      60.576  43.418  42.409  1.00  0.00    -0.271 OA
ATOM     63  N   ILE     8      59.177  41.991  43.452  1.00  0.00    -0.338 N 
ATOM     64  H   ILE     8      58.327  41.455  43.395  1.00 99.99     0.164 HD
BRANCH  63  65
ATOM     65  CA  ILE     8      59.744  42.045  44.817  1.00  0.00     0.159 C 
BRANCH  65  66
ATOM     66  CB  ILE     8      58.779  42.809  45.765  1.00  0.00     0.029 C 
ATOM     67  CG2 ILE     8      58.772  44.329  45.507  1.00  0.00     0.002 C 
BRANCH  66  68
ATOM     68  CG1 ILE     8      57.371  42.187  45.740  1.00  0.00     0.002 C 
ATOM     69  CD  ILE     8      56.820  41.748  47.105  1.00  0.00     0.000 C 
ENDBRANCH  66  68
ENDBRANCH  65  66
BRANCH  65  70
ATOM     70  C   ILE     8      60.024  40.600  45.283  1.00  0.00     0.251 C 
ATOM     71  O   ILE     8      60.738  40.391  46.262  1.00  0.00    -0.271 OA
ATOM     72  N   LYS     9      59.448  39.621  44.587  1.00  0.00    -0.338 N 
ATOM     73  H   LYS     9      58.853  39.803  43.805  1.00 99.99     0.164 HD
BRANCH  72  74
ATOM     74  CA  LYS     9      59.619  38.195  44.930  1.00  0.00     0.159 C 
BRANCH  74  75
ATOM     75  CB  LYS     9      61.107  37.889  45.187  1.00  0.00     0.032 C 
BRANCH  75  76
ATOM     76  CG  LYS     9      61.816  37.103  44.082  1.00  0.00     0.004 C 
BRANCH  76  77
ATOM     77  CD  LYS     9      61.216  35.696  44.012  1.00  0.00     0.032 C 
BRANCH  77  78
ATOM     78  CE  LYS     9      62.286  34.615  43.846  1.00  0.00     0.206 C 
BRANCH  78  79
ATOM     79  NZ  LYS     9      63.595  35.226  43.580  1.00  0.00    -0.064 N 
ATOM     80  HZ3 LYS     9      64.112  34.649  42.947  1.00 99.99     0.275 HD
ATOM     81  HZ2 LYS     9      64.104  35.317  44.437  1.00 99.99     0.275 HD
ATOM     82  HZ1 LYS     9      63.467  36.131  43.173  1.00 99.99     0.275 HD
ENDBRANCH  78  79
ENDBRANCH  77  78
ENDBRANCH  76  77
ENDBRANCH  75  76
ENDBRANCH  74  75
BRANCH  74  83
ATOM     83  C   LYS     9      58.788  37.825  46.171  1.00  0.00     0.251 C 
ATOM     84  N   PHE    10      59.206  36.770  46.873  1.00  0.00    -0.337 N 
ATOM     85  H   PHE    10      60.078  36.312  46.697  1.00 99.99     0.164 HD
ATOM     86  O   LYS     9      57.786  38.470  46.487  1.00  0.00    -0.271 OA
BRANCH  84  87
ATOM     87  CA  PHE    10      58.451  36.298  48.054  1.00  0.00     0.164 C 
BRANCH  87  88
ATOM     88  C   PHE    10      56.937  36.217  47.816  1.00  0.00     0.251 C 
ATOM     89  O   PHE    10      56.448  35.415  47.019  1.00  0.00    -0.271 OA
ATOM     90  N   ARG    11      56.216  37.065  48.552  1.00  0.00    -0.338 N 
ATOM     91  H   ARG    11      56.657  37.690  49.194  1.00 99.99     0.164 HD
BRANCH  90  92
ATOM     92  CA  ARG    11      54.744  37.142  48.525  1.00  0.00     0.159 C 
BRANCH  92  93
ATOM     93  C   ARG    11      54.235  38.569  48.245  1.00  0.00     0.251 C 
ATOM     94  O   ARG    11      54.147  39.017  47.099  1.00  0.00    -0.271 OA
ATOM     95  N   CYS    12      53.870  39.270  49.318  1.00  0.00    -0.337 N 
ATOM     96  H   CYS    12      53.763  38.831  50.213  1.00 99.99     0.164 HD
BRANCH  95  97
ATOM     97  CA  CYS    12      53.415  40.665  49.208  1.00  0.00     0.170 C 
BRANCH  97  98
ATOM     98  C   CYS    12      54.336  41.676  49.899  1.00  0.00     0.252 C 
ATOM     99  O   CYS    12      54.496  42.814  49.456  1.00  0.00    -0.271 OA
ATOM    100  N   LYS    13      54.787  41.257  51.085  1.00  0.00    -0.337 N 
ATOM    101  H   LYS    13      54.353  40.473  51.524  1.00 99.99     0.164 HD
BRANCH 100 102
ATOM    102  CA  LYS    13      55.808  41.958  51.883  1.00  0.00     0.159 C 
BRANCH 102 103
ATOM    103  C   LYS    13      57.240  41.946  51.317  1.00  0.00     0.251 C 
ATOM    104  O   LYS    13      57.973  42.917  51.497  1.00  0.00    -0.271 OA
ATOM    105  N   SER    14      57.602  40.912  50.552  1.00  0.00    -0.336 N 
ATOM    106  H   SER    14      56.993  40.150  50.337  1.00 99.99     0.164 HD
BRANCH 105 107
ATOM    107  CA  SER    14      58.983  40.705  50.062  1.00  0.00     0.189 C 
BRANCH 107 108
ATOM    108  C   SER    14      60.013  40.216  51.099  1.00  0.00     0.253 C 
ATOM    109  O   SER    14      59.919  40.516  52.290  1.00  0.00    -0.270 OA
ATOM    110  N   LEU    15      61.037  39.514  50.616  1.00  0.00    -0.337 N 
ATOM    111  H   LEU    15      61.097  39.271  49.650  1.00 99.99     0.164 HD
BRANCH 110 112
ATOM    112  CA  LEU    15      62.221  39.154  51.416  1.00  0.00     0.159 C 
BRANCH 112 113
ATOM    113  CB  LEU    15      62.092  37.773  52.073  1.00  0.00     0.032 C 
BRANCH 113 114
ATOM    114  CG  LEU    15      61.884  37.812  53.589  1.00  0.00     0.002 C 
ATOM    115  CD2 LEU    15      62.620  38.997  54.227  1.00  0.00     0.000 C 
ATOM    116  CD1 LEU    15      62.403  36.504  54.189  1.00  0.00     0.000 C 
ENDBRANCH 113 114
ENDBRANCH 112 113
BRANCH 112 117
ATOM    117  C   LEU    15      63.456  39.137  50.524  1.00  0.00     0.251 C 
ATOM    118  N   LYS    16      63.278  39.705  49.337  1.00  0.00    -0.338 N 
ATOM    119  H   LYS    16      62.417  40.138  49.076  1.00 99.99     0.164 HD
ATOM    120  O   LEU    15      64.524  38.676  50.931  1.00  0.00    -0.271 OA
BRANCH 118 121
ATOM    121  CA  LYS    16      64.356  39.840  48.358  1.00  0.00     0.159 C 
BRANCH 121 122
ATOM    122  C   LYS    16      64.419  41.286  47.851  1.00  0.00     0.251 C 
ATOM    123  O   LYS    16      63.465  41.834  47.299  1.00  0.00    -0.271 OA
ATOM    124  N   PHE    17      65.499  41.907  48.297  1.00  0.00    -0.336 N 
ATOM    125  H   PHE    17      66.041  41.512  49.040  1.00 99.99     0.164 HD
BRANCH 124 126
ATOM    126  CA  PHE    17      66.034  43.177  47.789  1.00  0.00     0.172 C 
BRANCH 126 127
ATOM    127  C   PHE    17      67.468  42.865  47.304  1.00  0.00     0.207 C 
ATOM    128  O   PHE    17      67.608  42.485  46.123  1.00 99.99    -0.646 OA
ATOM    129  OXT PHE    17      68.312  42.708  48.222  1.00 99.99    -0.646 OA
ENDBRANCH 126 127
BRANCH 126 130
ATOM    130  CB  PHE    17      66.024  44.115  48.997  1.00  0.00     0.058 C 
BRANCH 130 131
ATOM    131  CG  PHE    17      64.708  44.867  49.224  1.00  0.00    -0.044 A 
ATOM    132  CD1 PHE    17      63.666  44.247  49.895  1.00  0.00     0.008 A 
ATOM    133  CE1 PHE    17      62.569  44.987  50.307  1.00  0.00     0.001 A 
ATOM    134  CZ  PHE    17      62.519  46.359  50.059  1.00  0.00     0.000 A 
ATOM    135  CE2 PHE    17      63.567  46.977  49.375  1.00  0.00     0.001 A 
ATOM    136  CD2 PHE    17      64.658  46.224  48.956  1.00  0.00     0.008 A 
ENDBRANCH 130 131
ENDBRANCH 126 130
ENDBRANCH 124 126
ENDBRANCH 121 122
BRANCH 121 137
ATOM    137  CB  LYS    16      64.120  38.869  47.193  1.00  0.00     0.032 C 
BRANCH 137 138
ATOM    138  CG  LYS    16      65.433  38.544  46.476  1.00  0.00     0.004 C 
BRANCH 138 139
ATOM    139  CD  LYS    16      65.348  38.767  44.968  1.00  0.00     0.032 C 
BRANCH 139 140
ATOM    140  CE  LYS    16      66.521  39.644  44.529  1.00  0.00     0.206 C 
BRANCH 140 141
ATOM    141  NZ  LYS    16      67.667  39.487  45.433  1.00  0.00    -0.064 N 
ATOM    142  HZ2 LYS    16      67.460  39.927  46.307  1.00 99.99     0.275 HD
ATOM    143  HZ1 LYS    16      68.470  39.919  45.023  1.00 99.99     0.275 HD
ATOM    144  HZ3 LYS    16      67.847  38.514  45.578  1.00 99.99     0.275 HD
ENDBRANCH 140 141
ENDBRANCH 139 140
ENDBRANCH 138 139
ENDBRANCH 137 138
ENDBRANCH 121 137
ENDBRANCH 118 121
ENDBRANCH 112 117
ENDBRANCH 110 112
ENDBRANCH 107 108
BRANCH 107 145
ATOM    145  CB  SER    14      59.465  42.001  49.397  1.00  0.00     0.169 C 
BRANCH 145 146
ATOM    146  OG  SER    14      60.796  41.825  48.896  1.00  0.00    -0.380 OA
ATOM    147  HG  SER    14      61.254  41.124  49.447  1.00 99.99     0.211 HD
ENDBRANCH 145 146
ENDBRANCH 107 145
ENDBRANCH 105 107
ENDBRANCH 102 103
BRANCH 102 148
ATOM    148  CB  LYS    13      55.807  41.476  53.347  1.00  0.00     0.032 C 
BRANCH 148 149
ATOM    149  CG  LYS    13      56.802  40.333  53.596  1.00  0.00     0.004 C 
BRANCH 149 150
ATOM    150  CD  LYS    13      57.192  40.236  55.075  1.00  0.00     0.032 C 
BRANCH 150 151
ATOM    151  CE  LYS    13      57.512  38.798  55.483  1.00  0.00     0.206 C 
BRANCH 151 152
ATOM    152  NZ  LYS    13      58.968  38.624  55.602  1.00  0.00    -0.064 N 
ATOM    153  HZ1 LYS    13      59.257  37.835  55.061  1.00 99.99     0.275 HD
ATOM    154  HZ2 LYS    13      59.433  39.448  55.283  1.00 99.99     0.275 HD
ATOM    155  HZ3 LYS    13      59.193  38.466  56.565  1.00 99.99     0.275 HD
ENDBRANCH 151 152
ENDBRANCH 150 151
ENDBRANCH 149 150
ENDBRANCH 148 149
ENDBRANCH 102 148
ENDBRANCH 100 102
ENDBRANCH  97  98
BRANCH  97 156
ATOM    156  CB  CYS    12      51.988  40.812  49.749  1.00  0.00     0.085 C 
BRANCH 156 157
ATOM    157  SG  CYS    12      50.991  39.305  49.455  1.00  0.00    -0.165 SA
ATOM    158  HG  CYS    12      50.038  39.584  50.338  1.00 99.99     0.102 HD
ENDBRANCH 156 157
ENDBRANCH  97 156
ENDBRANCH  95  97
ENDBRANCH  92  93
BRANCH  92 159
ATOM    159  CB  ARG    11      54.221  36.602  49.866  1.00  0.00     0.034 C 
BRANCH 159 160
ATOM    160  CG  ARG    11      55.325  36.461  50.916  1.00  0.00     0.027 C 
BRANCH 160 161
ATOM    161  CD  ARG    11      54.876  37.073  52.244  1.00  0.00     0.116 C 
BRANCH 161 162
ATOM    162  NE  ARG    11      54.718  36.007  53.247  1.00  0.00    -0.212 N 
ATOM    163  HE  ARG    11      55.279  35.198  53.094  1.00 99.99     0.178 HD
ATOM    164  CZ  ARG    11      53.907  36.029  54.313  1.00  0.00     0.666 C 
ATOM    165  NH1 ARG    11      53.122  37.065  54.583  1.00  0.00    -0.235 N 
ATOM    166  NH2 ARG    11      53.862  34.992  55.136  1.00  0.00    -0.235 N 
ATOM    167 2HH1 ARG    11      53.127  37.850  53.962  1.00 99.99     0.174 HD
ATOM    168 1HH1 ARG    11      52.528  37.056  55.382  1.00 99.99     0.174 HD
ATOM    169 1HH2 ARG    11      53.252  35.020  55.926  1.00 99.99     0.174 HD
ATOM    170 2HH2 ARG    11      54.424  34.185  54.968  1.00 99.99     0.174 HD
ENDBRANCH 161 162
ENDBRANCH 160 161
ENDBRANCH 159 160
ENDBRANCH  92 159
ENDBRANCH  90  92
ENDBRANCH  87  88
BRANCH  87 171
ATOM    171  CB  PHE    10      58.807  37.103  49.313  1.00  0.00     0.056 C 
BRANCH 171 172
ATOM    172  CG  PHE    10      58.848  36.294  50.623  1.00  0.00    -0.044 A 
ATOM    173  CD2 PHE    10      58.654  36.915  51.842  1.00  0.00     0.008 A 
ATOM    174  CE2 PHE    10      58.680  36.176  53.015  1.00  0.00     0.001 A 
ATOM    175  CZ  PHE    10      58.900  34.798  52.967  1.00  0.00     0.000 A 
ATOM    176  CE1 PHE    10      59.114  34.179  51.733  1.00  0.00     0.001 A 
ATOM    177  CD1 PHE    10      59.081  34.931  50.565  1.00  0.00     0.008 A 
ENDBRANCH 171 172
ENDBRANCH  87 171
ENDBRANCH  84  87
ENDBRANCH  74  83
ENDBRANCH  72  74
ENDBRANCH  65  70
ENDBRANCH  63  65
ENDBRANCH  52  61
ENDBRANCH  49  52
ENDBRANCH  47  48
BRANCH  47 178
ATOM    178  CB  ILE     6      59.733  43.616  36.582  1.00  0.00     0.029 C 
ATOM    179  CG2 ILE     6      60.537  44.358  35.503  1.00  0.00     0.002 C 
BRANCH 178 180
ATOM    180  CG1 ILE     6      59.259  42.220  36.136  1.00  0.00     0.002 C 
ATOM    181  CD  ILE     6      57.834  42.179  35.569  1.00  0.00     0.000 C 
ENDBRANCH 178 180
ENDBRANCH  47 178
ENDBRANCH  45  47
ENDBRANCH  42  43
BRANCH  42 182
ATOM    182  CB  TRP     5      62.393  39.954  37.494  1.00  0.00     0.059 C 
BRANCH 182 183
ATOM    183  CG  TRP     5      62.909  38.511  37.591  1.00  0.00    -0.016 A 
ATOM    184  CD1 TRP     5      63.968  37.963  36.995  1.00  0.00     0.097 A 
ATOM    185  NE1 TRP     5      64.205  36.756  37.507  1.00  0.00    -0.365 N 
ATOM    186  CE2 TRP     5      63.287  36.486  38.435  1.00  0.00     0.042 A 
ATOM    187  HE1 TRP     5      64.986  36.178  37.276  1.00 99.99     0.165 HD
ATOM    188  CD2 TRP     5      62.440  37.580  38.502  1.00  0.00    -0.001 A 
ATOM    189  CZ2 TRP     5      63.120  35.427  39.318  1.00  0.00     0.030 A 
ATOM    190  CE3 TRP     5      61.423  37.628  39.445  1.00  0.00     0.014 A 
ATOM    191  CZ3 TRP     5      61.261  36.575  40.340  1.00  0.00     0.001 A 
ATOM    192  CH2 TRP     5      62.111  35.473  40.270  1.00  0.00     0.002 A 
ENDBRANCH 182 183
ENDBRANCH  42 182
ENDBRANCH  39  42
ENDBRANCH  34  38
ENDBRANCH  31  34
ENDBRANCH  17  30
ENDBRANCH  15  17
ENDBRANCH   8  13
ENDBRANCH   5   6
BRANCH   5 193
ATOM    193  CB  ARG     1      68.870  40.929  41.953  1.00  0.00     0.042 C 
BRANCH 193 194
ATOM    194  CG  ARG     1      70.149  40.276  42.514  1.00  0.00     0.027 C 
BRANCH 194 195
ATOM    195  CD  ARG     1      70.664  40.977  43.781  1.00  0.00     0.116 C 
BRANCH 195 196
ATOM    196  NE  ARG     1      71.219  42.310  43.469  1.00  0.00    -0.212 N 
ATOM    197  HE  ARG     1      72.113  42.304  43.026  1.00 99.99     0.178 HD
ATOM    198  CZ  ARG     1      70.660  43.502  43.736  1.00  0.00     0.666 C 
ATOM    199  NH2 ARG     1      71.281  44.630  43.415  1.00  0.00    -0.235 N 
ATOM    200  NH1 ARG     1      69.480  43.614  44.333  1.00  0.00    -0.235 N 
ATOM    201 2HH2 ARG     1      72.179  44.615  42.978  1.00 99.99     0.174 HD
ATOM    202 1HH2 ARG     1      70.847  45.505  43.620  1.00 99.99     0.174 HD
ATOM    203 1HH1 ARG     1      69.089  44.513  44.515  1.00 99.99     0.174 HD
ATOM    204 2HH1 ARG     1      68.988  42.785  44.595  1.00 99.99     0.174 HD
ENDBRANCH 195 196
ENDBRANCH 194 195
ENDBRANCH 193 194
ENDBRANCH   5 193
ENDBRANCH   1   5
TORSDOF 83
ENDMDL
MODEL 6
REMARK VINA RESULT:      -3.3      2.873      7.514
REMARK WARNING: 32 MAX_TORS EXCEEDED!!!
REMARK  83 active torsions:
REMARK  status: ('A' for Active; 'I' for Inactive)
REMARK    1  A    between atoms: N_1  and  CA_2 
REMARK    2  A    between atoms: CA_2  and  C_3 
REMARK    3  A    between atoms: CA_2  and  CB_5 
REMARK       I    between atoms: C_3  and  N_20 
REMARK    4  A    between atoms: CB_5  and  CG_6 
REMARK    5  A    between atoms: CG_6  and  CD_7 
REMARK    6  A    between atoms: CD_7  and  NE_8 
REMARK       I    between atoms: NE_8  and  CZ_9 
REMARK       I    between atoms: CZ_9  and  NH2_11 
REMARK       I    between atoms: CZ_9  and  NH1_10 
REMARK    7  A    between atoms: CA_21  and  C_22 
REMARK       I    between atoms: C_22  and  N_27 
REMARK    8  A    between atoms: N_27  and  CA_28 
REMARK    9  A    between atoms: CA_28  and  CB_31 
REMARK   10  A    between atoms: CA_28  and  C_29 
REMARK       I    between atoms: C_29  and  N_44 
REMARK   11  A    between atoms: CB_31  and  CG_32 
REMARK   12  A    between atoms: CG_32  and  CD_33 
REMARK   13  A    between atoms: CD_33  and  NE_34 
REMARK       I    between atoms: NE_34  and  CZ_35 
REMARK       I    between atoms: CZ_35  and  NH1_36 
REMARK       I    between atoms: CZ_35  and  NH2_37 
REMARK   14  A    between atoms: N_44  and  CA_45 
REMARK   15  A    between atoms: CA_45  and  CB_48 
REMARK   16  A    between atoms: CA_45  and  C_46 
REMARK       I    between atoms: C_46  and  N_52 
REMARK   17  A    between atoms: CB_48  and  SG_49 
REMARK   18  A    between atoms: N_52  and  CA_53 
REMARK   19  A    between atoms: CA_53  and  C_54 
REMARK   20  A    between atoms: CA_53  and  CB_56 
REMARK       I    between atoms: C_54  and  N_68 
REMARK   21  A    between atoms: CB_56  and  CG_57 
REMARK   22  A    between atoms: N_68  and  CA_69 
REMARK   23  A    between atoms: CA_69  and  C_70 
REMARK   24  A    between atoms: CA_69  and  CB_72 
REMARK       I    between atoms: C_70  and  N_77 
REMARK   25  A    between atoms: CB_72  and  CG1_73 
REMARK   26  A    between atoms: N_77  and  CA_78 
REMARK   27  A    between atoms: CA_78  and  CB_81 
REMARK   28  A    between atoms: CA_78  and  C_79 
REMARK       I    between atoms: C_79  and  N_90 
REMARK   29  A    between atoms: CB_81  and  CG_82 
REMARK   30  A    between atoms: CG_82  and  CD_83 
REMARK   31  A    between atoms: CD_83  and  CE_84 
REMARK   32  A    between atoms: CE_84  and  NZ_85 
REMARK   33  A    between atoms: N_90  and  CA_91 
REMARK   34  A    between atoms: CA_91  and  CB_94 
REMARK   35  A    between atoms: CA_91  and  C_92 
REMARK       I    between atoms: C_92  and  N_99 
REMARK   36  A    between atoms: CB_94  and  CG1_95 
REMARK   37  A    between atoms: N_99  and  CA_100 
REMARK   38  A    between atoms: CA_100  and  CB_103 
REMARK   39  A    between atoms: CA_100  and  C_101 
REMARK       I    between atoms: C_101  and  N_112 
REMARK   40  A    between atoms: CB_103  and  CG_104 
REMARK   41  A    between atoms: CG_104  and  CD_105 
REMARK   42  A    between atoms: CD_105  and  CE_106 
REMARK   43  A    between atoms: CE_106  and  NZ_107 
REMARK   44  A    between atoms: N_112  and  CA_113 
REMARK   45  A    between atoms: CA_113  and  C_114 
REMARK   46  A    between atoms: CA_113  and  CB_116 
REMARK       I    between atoms: C_114  and  N_124 
REMARK   47  A    between atoms: CB_116  and  CG_117 
REMARK   48  A    between atoms: N_124  and  CA_125 
REMARK   49  A    between atoms: CA_125  and  C_126 
REMARK   50  A    between atoms: CA_125  and  CB_128 
REMARK       I    between atoms: C_126  and  N_141 
REMARK   51  A    between atoms: CB_128  and  CG_129 
REMARK   52  A    between atoms: CG_129  and  CD_130 
REMARK   53  A    between atoms: CD_130  and  NE_131 
REMARK       I    between atoms: NE_131  and  CZ_132 
REMARK       I    between atoms: CZ_132  and  NH1_133 
REMARK   54  A    between atoms: N_141  and  CA_142 
REMARK   55  A    between atoms: CA_142  and  C_143 
REMARK   56  A    between atoms: CA_142  and  CB_145 
REMARK       I    between atoms: C_143  and  N_149 
REMARK   57  A    between atoms: CB_145  and  SG_146 
REMARK   58  A    between atoms: N_149  and  CA_150 
REMARK   59  A    between atoms: CA_150  and  C_151 
REMARK   60  A    between atoms: CA_150  and  CB_153 
REMARK       I    between atoms: C_151  and  N_162 
REMARK   61  A    between atoms: CB_153  and  CG_154 
REMARK   62  A    between atoms: CG_154  and  CD_155 
REMARK   63  A    between atoms: CD_155  and  CE_156 
REMARK   64  A    between atoms: CE_156  and  NZ_157 
REMARK   65  A    between atoms: N_162  and  CA_163 
REMARK   66  A    between atoms: CA_163  and  C_164 
REMARK   67  A    between atoms: CA_163  and  CB_166 
REMARK       I    between atoms: C_164  and  N_170 
REMARK   68  A    between atoms: CB_166  and  OG_167 
REMARK   69  A    between atoms: N_170  and  CA_171 
REMARK   70  A    between atoms: CA_171  and  CB_174 
REMARK   71  A    between atoms: CA_171  and  C_172 
REMARK       I    between atoms: C_172  and  N_179 
REMARK   72  A    between atoms: CB_174  and  CG_175 
REMARK   73  A    between atoms: N_179  and  CA_180 
REMARK   74  A    between atoms: CA_180  and  C_181 
REMARK   75  A    between atoms: CA_180  and  CB_183 
REMARK       I    between atoms: C_181  and  N_192 
REMARK   76  A    between atoms: CB_183  and  CG_184 
REMARK   77  A    between atoms: CG_184  and  CD_185 
REMARK   78  A    between atoms: CD_185  and  CE_186 
REMARK   79  A    between atoms: CE_186  and  NZ_187 
REMARK   80  A    between atoms: N_192  and  CA_193 
REMARK   81  A    between atoms: CA_193  and  C_194 
REMARK   82  A    between atoms: CA_193  and  CB_196 
REMARK   83  A    between atoms: CB_196  and  CG_197 
ROOT
ATOM      1  N   ARG     1      60.399  43.801  37.581  1.00  0.00    -0.058 N 
ATOM      2  H1  ARG     1      59.889  44.086  36.770  1.00 99.99     0.276 HD
ATOM      3  H2  ARG     1      60.137  44.388  38.328  1.00 99.99     0.276 HD
ATOM      4  H3  ARG     1      61.362  43.967  37.442  1.00 99.99     0.276 HD
ENDROOT
BRANCH   1   5
ATOM      5  CA  ARG     1      60.076  42.371  37.846  1.00  0.00     0.255 C 
BRANCH   5   6
ATOM      6  C   ARG     1      59.096  42.308  39.038  1.00  0.00     0.262 C 
ATOM      7  N   PRO     2      58.490  41.146  39.317  1.00  0.00    -0.312 N 
ATOM      8  CA  PRO     2      57.725  40.955  40.564  1.00  0.00     0.163 C 
ATOM      9  CD  PRO     2      58.426  39.942  38.466  1.00  0.00     0.105 C 
ATOM     10  CB  PRO     2      57.022  39.608  40.392  1.00  0.00     0.034 C 
ATOM     11  CG  PRO     2      57.914  38.849  39.408  1.00  0.00     0.027 C 
ATOM     12  O   ARG     1      58.779  43.357  39.608  1.00  0.00    -0.270 OA
BRANCH   8  13
ATOM     13  C   PRO     2      58.682  40.987  41.766  1.00  0.00     0.251 C 
ATOM     14  O   PRO     2      59.574  40.148  41.879  1.00  0.00    -0.271 OA
ATOM     15  N   ARG     3      58.584  42.060  42.545  1.00  0.00    -0.338 N 
ATOM     16  H   ARG     3      57.963  42.818  42.330  1.00 99.99     0.164 HD
BRANCH  15  17
ATOM     17  CA  ARG     3      59.389  42.244  43.765  1.00  0.00     0.159 C 
BRANCH  17  18
ATOM     18  CB  ARG     3      59.087  41.127  44.778  1.00  0.00     0.034 C 
BRANCH  18  19
ATOM     19  CG  ARG     3      57.875  41.459  45.658  1.00  0.00     0.027 C 
BRANCH  19  20
ATOM     20  CD  ARG     3      56.641  40.611  45.332  1.00  0.00     0.116 C 
BRANCH  20  21
ATOM     21  NE  ARG     3      55.687  40.602  46.454  1.00  0.00    -0.212 N 
ATOM     22  CZ  ARG     3      54.641  39.783  46.600  1.00  0.00     0.666 C 
ATOM     23  NH1 ARG     3      54.334  38.861  45.694  1.00  0.00    -0.235 N 
ATOM     24  NH2 ARG     3      53.899  39.837  47.697  1.00  0.00    -0.235 N 
ATOM     25 1HH1 ARG     3      53.552  38.259  45.829  1.00 99.99     0.174 HD
ATOM     26 2HH1 ARG     3      54.903  38.780  44.877  1.00 99.99     0.174 HD
ATOM     27 1HH2 ARG     3      53.125  39.217  47.797  1.00 99.99     0.174 HD
ATOM     28 2HH2 ARG     3      54.117  40.488  48.424  1.00 99.99     0.174 HD
ATOM     29  HE  ARG     3      55.853  41.292  47.156  1.00 99.99     0.178 HD
ENDBRANCH  20  21
ENDBRANCH  19  20
ENDBRANCH  18  19
ENDBRANCH  17  18
BRANCH  17  30
ATOM     30  C   ARG     3      60.875  42.216  43.402  1.00  0.00     0.251 C 
ATOM     31  N   CYS     4      61.580  41.276  44.027  1.00  0.00    -0.337 N 
ATOM     32  H   CYS     4      61.179  40.727  44.758  1.00 99.99     0.164 HD
ATOM     33  O   ARG     3      61.358  43.052  42.636  1.00  0.00    -0.271 OA
BRANCH  31  34
ATOM     34  CA  CYS     4      63.002  40.994  43.762  1.00  0.00     0.170 C 
BRANCH  34  35
ATOM     35  CB  CYS     4      63.805  41.209  45.053  1.00  0.00     0.085 C 
BRANCH  35  36
ATOM     36  SG  CYS     4      64.444  42.908  45.298  1.00  0.00    -0.165 SA
ATOM     37  HG  CYS     4      63.601  43.232  46.274  1.00 99.99     0.102 HD
ENDBRANCH  35  36
ENDBRANCH  34  35
BRANCH  34  38
ATOM     38  C   CYS     4      63.182  39.527  43.342  1.00  0.00     0.252 C 
ATOM     39  N   TRP     5      64.421  39.182  43.006  1.00  0.00    -0.337 N 
ATOM     40  H   TRP     5      65.150  39.854  42.897  1.00 99.99     0.164 HD
ATOM     41  O   CYS     4      62.225  38.754  43.309  1.00  0.00    -0.271 OA
BRANCH  39  42
ATOM     42  CA  TRP     5      64.815  37.793  42.707  1.00  0.00     0.164 C 
BRANCH  42  43
ATOM     43  C   TRP     5      65.087  37.056  44.016  1.00  0.00     0.251 C 
ATOM     44  O   TRP     5      64.576  35.958  44.252  1.00  0.00    -0.271 OA
ATOM     45  N   ILE     6      66.098  37.564  44.718  1.00  0.00    -0.338 N 
ATOM     46  H   ILE     6      66.597  38.361  44.384  1.00 99.99     0.164 HD
BRANCH  45  47
ATOM     47  CA  ILE     6      66.554  37.022  46.012  1.00  0.00     0.159 C 
BRANCH  47  48
ATOM     48  C   ILE     6      66.639  38.118  47.093  1.00  0.00     0.251 C 
ATOM     49  N   LYS     7      67.854  38.449  47.549  1.00  0.00    -0.338 N 
ATOM     50  H   LYS     7      68.672  37.976  47.226  1.00 99.99     0.164 HD
ATOM     51  O   ILE     6      65.609  38.648  47.511  1.00  0.00    -0.271 OA
BRANCH  49  52
ATOM     52  CA  LYS     7      68.099  39.470  48.587  1.00  0.00     0.159 C 
BRANCH  52  53
ATOM     53  CB  LYS     7      67.735  40.836  47.985  1.00  0.00     0.032 C 
BRANCH  53  54
ATOM     54  CG  LYS     7      68.756  41.345  46.962  1.00  0.00     0.004 C 
BRANCH  54  55
ATOM     55  CD  LYS     7      68.951  42.855  47.093  1.00  0.00     0.032 C 
BRANCH  55  56
ATOM     56  CE  LYS     7      68.161  43.600  46.017  1.00  0.00     0.206 C 
BRANCH  56  57
ATOM     57  NZ  LYS     7      68.158  42.849  44.751  1.00  0.00    -0.064 N 
ATOM     58  HZ3 LYS     7      68.910  43.167  44.174  1.00 99.99     0.275 HD
ATOM     59  HZ2 LYS     7      67.290  42.995  44.281  1.00 99.99     0.275 HD
ATOM     60  HZ1 LYS     7      68.275  41.875  44.943  1.00 99.99     0.275 HD
ENDBRANCH  56  57
ENDBRANCH  55  56
ENDBRANCH  54  55
ENDBRANCH  53  54
ENDBRANCH  52  53
BRANCH  52  61
ATOM     61  C   LYS     7      67.352  39.171  49.910  1.00  0.00     0.251 C 
ATOM     62  O   LYS     7      66.562  39.966  50.422  1.00  0.00    -0.271 OA
ATOM     63  N   ILE     8      67.668  38.002  50.462  1.00  0.00    -0.338 N 
ATOM     64  H   ILE     8      68.271  37.367  49.966  1.00 99.99     0.164 HD
BRANCH  63  65
ATOM     65  CA  ILE     8      67.088  37.419  51.691  1.00  0.00     0.159 C 
BRANCH  65  66
ATOM     66  CB  ILE     8      67.613  38.180  52.940  1.00  0.00     0.029 C 
ATOM     67  CG2 ILE     8      67.133  37.550  54.263  1.00  0.00     0.002 C 
BRANCH  66  68
ATOM     68  CG1 ILE     8      69.141  38.361  52.878  1.00  0.00     0.002 C 
ATOM     69  CD  ILE     8      69.762  39.123  54.058  1.00  0.00     0.000 C 
ENDBRANCH  66  68
ENDBRANCH  65  66
BRANCH  65  70
ATOM     70  C   ILE     8      65.549  37.462  51.568  1.00  0.00     0.251 C 
ATOM     71  O   ILE     8      64.950  36.575  50.962  1.00  0.00    -0.271 OA
ATOM     72  N   LYS     9      64.926  38.484  52.153  1.00  0.00    -0.338 N 
ATOM     73  H   LYS     9      65.421  39.188  52.660  1.00 99.99     0.164 HD
BRANCH  72  74
ATOM     74  CA  LYS     9      63.458  38.642  52.124  1.00  0.00     0.159 C 
BRANCH  74  75
ATOM     75  CB  LYS     9      62.877  38.426  53.534  1.00  0.00     0.032 C 
BRANCH  75  76
ATOM     76  CG  LYS     9      62.108  37.118  53.735  1.00  0.00     0.004 C 
BRANCH  76  77
ATOM     77  CD  LYS     9      63.056  36.073  54.327  1.00  0.00     0.032 C 
BRANCH  77  78
ATOM     78  CE  LYS     9      62.570  35.547  55.679  1.00  0.00     0.206 C 
BRANCH  78  79
ATOM     79  NZ  LYS     9      61.430  36.340  56.158  1.00  0.00    -0.064 N 
ATOM     80  HZ3 LYS     9      61.754  37.229  56.483  1.00 99.99     0.275 HD
ATOM     81  HZ2 LYS     9      60.976  35.859  56.908  1.00 99.99     0.275 HD
ATOM     82  HZ1 LYS     9      60.779  36.479  55.410  1.00 99.99     0.275 HD
ENDBRANCH  78  79
ENDBRANCH  77  78
ENDBRANCH  76  77
ENDBRANCH  75  76
ENDBRANCH  74  75
BRANCH  74  83
ATOM     83  C   LYS     9      63.066  40.036  51.605  1.00  0.00     0.251 C 
ATOM     84  N   PHE    10      63.457  40.340  50.366  1.00  0.00    -0.337 N 
ATOM     85  H   PHE    10      63.868  39.670  49.747  1.00 99.99     0.164 HD
ATOM     86  O   LYS     9      62.431  40.826  52.306  1.00  0.00    -0.271 OA
BRANCH  84  87
ATOM     87  CA  PHE    10      63.176  41.672  49.787  1.00  0.00     0.164 C 
BRANCH  87  88
ATOM     88  C   PHE    10      61.861  41.728  48.999  1.00  0.00     0.251 C 
ATOM     89  O   PHE    10      61.805  42.208  47.865  1.00  0.00    -0.271 OA
ATOM     90  N   ARG    11      60.813  41.203  49.634  1.00  0.00    -0.338 N 
ATOM     91  H   ARG    11      60.910  40.815  50.550  1.00 99.99     0.164 HD
BRANCH  90  92
ATOM     92  CA  ARG    11      59.458  41.107  49.062  1.00  0.00     0.159 C 
BRANCH  92  93
ATOM     93  C   ARG    11      58.395  41.786  49.948  1.00  0.00     0.251 C 
ATOM     94  O   ARG    11      58.610  42.058  51.132  1.00  0.00    -0.271 OA
ATOM     95  N   CYS    12      57.247  42.084  49.342  1.00  0.00    -0.337 N 
ATOM     96  H   CYS    12      57.160  42.036  48.344  1.00 99.99     0.164 HD
BRANCH  95  97
ATOM     97  CA  CYS    12      56.123  42.686  50.076  1.00  0.00     0.170 C 
BRANCH  97  98
ATOM     98  C   CYS    12      55.062  41.675  50.526  1.00  0.00     0.252 C 
ATOM     99  O   CYS    12      53.919  41.691  50.070  1.00  0.00    -0.271 OA
ATOM    100  N   LYS    13      55.552  40.704  51.304  1.00  0.00    -0.337 N 
ATOM    101  H   LYS    13      56.539  40.572  51.357  1.00 99.99     0.164 HD
BRANCH 100 102
ATOM    102  CA  LYS    13      54.728  39.701  52.000  1.00  0.00     0.159 C 
BRANCH 102 103
ATOM    103  C   LYS    13      55.272  39.190  53.347  1.00  0.00     0.251 C 
ATOM    104  O   LYS    13      54.492  38.952  54.268  1.00  0.00    -0.271 OA
ATOM    105  N   SER    14      56.598  39.126  53.504  1.00  0.00    -0.336 N 
ATOM    106  H   SER    14      57.246  39.385  52.789  1.00 99.99     0.164 HD
BRANCH 105 107
ATOM    107  CA  SER    14      57.250  38.525  54.687  1.00  0.00     0.189 C 
BRANCH 107 108
ATOM    108  C   SER    14      57.564  39.479  55.857  1.00  0.00     0.253 C 
ATOM    109  O   SER    14      57.074  40.608  55.915  1.00  0.00    -0.270 OA
ATOM    110  N   LEU    15      58.441  39.033  56.754  1.00  0.00    -0.337 N 
ATOM    111  H   LEU    15      58.825  38.113  56.700  1.00 99.99     0.164 HD
BRANCH 110 112
ATOM    112  CA  LEU    15      59.023  39.881  57.809  1.00  0.00     0.159 C 
BRANCH 112 113
ATOM    113  CB  LEU    15      58.474  39.548  59.204  1.00  0.00     0.032 C 
BRANCH 113 114
ATOM    114  CG  LEU    15      57.383  40.501  59.697  1.00  0.00     0.002 C 
ATOM    115  CD2 LEU    15      55.990  40.039  59.250  1.00  0.00     0.000 C 
ATOM    116  CD1 LEU    15      57.664  41.897  59.139  1.00  0.00     0.000 C 
ENDBRANCH 113 114
ENDBRANCH 112 113
BRANCH 112 117
ATOM    117  C   LEU    15      60.534  39.694  57.841  1.00  0.00     0.251 C 
ATOM    118  N   LYS    16      61.082  39.898  59.034  1.00  0.00    -0.338 N 
ATOM    119  H   LYS    16      60.537  40.116  59.842  1.00 99.99     0.164 HD
ATOM    120  O   LEU    15      61.149  39.330  56.837  1.00  0.00    -0.271 OA
BRANCH 118 121
ATOM    121  CA  LYS    16      62.511  39.715  59.286  1.00  0.00     0.159 C 
BRANCH 121 122
ATOM    122  C   LYS    16      63.291  40.927  58.761  1.00  0.00     0.251 C 
ATOM    123  O   LYS    16      63.240  42.030  59.305  1.00  0.00    -0.271 OA
ATOM    124  N   PHE    17      64.175  40.571  57.843  1.00  0.00    -0.336 N 
ATOM    125  H   PHE    17      64.415  39.608  57.716  1.00 99.99     0.164 HD
BRANCH 124 126
ATOM    126  CA  PHE    17      64.875  41.479  56.925  1.00  0.00     0.172 C 
BRANCH 126 127
ATOM    127  C   PHE    17      64.169  41.322  55.560  1.00  0.00     0.207 C 
ATOM    128  O   PHE    17      62.957  41.619  55.499  1.00 99.99    -0.646 OA
ATOM    129  OXT PHE    17      64.783  40.609  54.726  1.00 99.99    -0.646 OA
ENDBRANCH 126 127
BRANCH 126 130
ATOM    130  CB  PHE    17      66.315  40.965  56.893  1.00  0.00     0.058 C 
BRANCH 130 131
ATOM    131  CG  PHE    17      67.375  42.022  56.565  1.00  0.00    -0.044 A 
ATOM    132  CD1 PHE    17      68.153  41.889  55.426  1.00  0.00     0.008 A 
ATOM    133  CE1 PHE    17      68.943  42.944  54.999  1.00  0.00     0.001 A 
ATOM    134  CZ  PHE    17      68.946  44.146  55.707  1.00  0.00     0.000 A 
ATOM    135  CE2 PHE    17      68.166  44.273  56.858  1.00  0.00     0.001 A 
ATOM    136  CD2 PHE    17      67.385  43.205  57.285  1.00  0.00     0.008 A 
ENDBRANCH 130 131
ENDBRANCH 126 130
ENDBRANCH 124 126
ENDBRANCH 121 122
BRANCH 121 137
ATOM    137  CB  LYS    16      62.995  38.426  58.608  1.00  0.00     0.032 C 
BRANCH 137 138
ATOM    138  CG  LYS    16      63.504  37.419  59.642  1.00  0.00     0.004 C 
BRANCH 138 139
ATOM    139  CD  LYS    16      63.989  36.119  59.006  1.00  0.00     0.032 C 
BRANCH 139 140
ATOM    140  CE  LYS    16      63.283  34.943  59.681  1.00  0.00     0.206 C 
BRANCH 140 141
ATOM    141  NZ  LYS    16      61.838  34.977  59.429  1.00  0.00    -0.064 N 
ATOM    142  HZ2 LYS    16      61.355  35.123  60.292  1.00 99.99     0.275 HD
ATOM    143  HZ1 LYS    16      61.553  34.105  59.031  1.00 99.99     0.275 HD
ATOM    144  HZ3 LYS    16      61.627  35.719  58.794  1.00 99.99     0.275 HD
ENDBRANCH 140 141
ENDBRANCH 139 140
ENDBRANCH 138 139
ENDBRANCH 137 138
ENDBRANCH 121 137
ENDBRANCH 118 121
ENDBRANCH 112 117
ENDBRANCH 110 112
ENDBRANCH 107 108
BRANCH 107 145
ATOM    145  CB  SER    14      58.524  37.802  54.230  1.00  0.00     0.169 C 
BRANCH 145 146
ATOM    146  OG  SER    14      58.684  36.584  54.967  1.00  0.00    -0.380 OA
ATOM    147  HG  SER    14      58.293  36.711  55.882  1.00 99.99     0.211 HD
ENDBRANCH 145 146
ENDBRANCH 107 145
ENDBRANCH 105 107
ENDBRANCH 102 103
BRANCH 102 148
ATOM    148  CB  LYS    13      54.386  38.515  51.077  1.00  0.00     0.032 C 
BRANCH 148 149
ATOM    149  CG  LYS    13      52.884  38.199  51.049  1.00  0.00     0.004 C 
BRANCH 149 150
ATOM    150  CD  LYS    13      52.611  36.726  51.372  1.00  0.00     0.032 C 
BRANCH 150 151
ATOM    151  CE  LYS    13      52.449  36.495  52.874  1.00  0.00     0.206 C 
BRANCH 151 152
ATOM    152  NZ  LYS    13      51.382  37.361  53.402  1.00  0.00    -0.064 N 
ATOM    153  HZ1 LYS    13      51.209  38.109  52.762  1.00 99.99     0.275 HD
ATOM    154  HZ2 LYS    13      50.550  36.827  53.538  1.00 99.99     0.275 HD
ATOM    155  HZ3 LYS    13      51.683  37.739  54.280  1.00 99.99     0.275 HD
ENDBRANCH 151 152
ENDBRANCH 150 151
ENDBRANCH 149 150
ENDBRANCH 148 149
ENDBRANCH 102 148
ENDBRANCH 100 102
ENDBRANCH  97  98
BRANCH  97 156
ATOM    156  CB  CYS    12      55.462  43.790  49.243  1.00  0.00     0.085 C 
BRANCH 156 157
ATOM    157  SG  CYS    12      56.542  44.343  47.872  1.00  0.00    -0.165 SA
ATOM    158  HG  CYS    12      56.422  43.243  47.136  1.00 99.99     0.102 HD
ENDBRANCH 156 157
ENDBRANCH  97 156
ENDBRANCH  95  97
ENDBRANCH  92  93
BRANCH  92 159
ATOM    159  CB  ARG    11      59.147  39.618  48.838  1.00  0.00     0.034 C 
BRANCH 159 160
ATOM    160  CG  ARG    11      58.785  38.889  50.134  1.00  0.00     0.027 C 
BRANCH 160 161
ATOM    161  CD  ARG    11      59.842  37.833  50.461  1.00  0.00     0.116 C 
BRANCH 161 162
ATOM    162  NE  ARG    11      60.961  37.948  49.510  1.00  0.00    -0.212 N 
ATOM    163  HE  ARG    11      60.937  38.757  48.929  1.00 99.99     0.178 HD
ATOM    164  CZ  ARG    11      61.973  37.085  49.362  1.00  0.00     0.666 C 
ATOM    165  NH1 ARG    11      62.072  35.979  50.092  1.00  0.00    -0.235 N 
ATOM    166  NH2 ARG    11      62.915  37.312  48.459  1.00  0.00    -0.235 N 
ATOM    167 2HH1 ARG    11      61.360  35.780  50.765  1.00 99.99     0.174 HD
ATOM    168 1HH1 ARG    11      62.835  35.353  49.961  1.00 99.99     0.174 HD
ATOM    169 1HH2 ARG    11      63.663  36.660  48.357  1.00 99.99     0.174 HD
ATOM    170 2HH2 ARG    11      62.877  38.123  47.878  1.00 99.99     0.174 HD
ENDBRANCH 161 162
ENDBRANCH 160 161
ENDBRANCH 159 160
ENDBRANCH  92 159
ENDBRANCH  90  92
ENDBRANCH  87  88
BRANCH  87 171
ATOM    171  CB  PHE    10      64.370  42.203  48.980  1.00  0.00     0.056 C 
BRANCH 171 172
ATOM    172  CG  PHE    10      64.773  43.659  49.277  1.00  0.00    -0.044 A 
ATOM    173  CD2 PHE    10      66.040  44.117  48.969  1.00  0.00     0.008 A 
ATOM    174  CE2 PHE    10      66.388  45.434  49.229  1.00  0.00     0.001 A 
ATOM    175  CZ  PHE    10      65.458  46.303  49.802  1.00  0.00     0.000 A 
ATOM    176  CE1 PHE    10      64.185  45.828  50.129  1.00  0.00     0.001 A 
ATOM    177  CD1 PHE    10      63.847  44.507  49.859  1.00  0.00     0.008 A 
ENDBRANCH 171 172
ENDBRANCH  87 171
ENDBRANCH  84  87
ENDBRANCH  74  83
ENDBRANCH  72  74
ENDBRANCH  65  70
ENDBRANCH  63  65
ENDBRANCH  52  61
ENDBRANCH  49  52
ENDBRANCH  47  48
BRANCH  47 178
ATOM    178  CB  ILE     6      67.879  36.245  45.827  1.00  0.00     0.029 C 
ATOM    179  CG2 ILE     6      67.588  34.738  45.902  1.00  0.00     0.002 C 
BRANCH 178 180
ATOM    180  CG1 ILE     6      68.627  36.658  44.545  1.00  0.00     0.002 C 
ATOM    181  CD  ILE     6      70.125  36.930  44.739  1.00  0.00     0.000 C 
ENDBRANCH 178 180
ENDBRANCH  47 178
ENDBRANCH  45  47
ENDBRANCH  42  43
BRANCH  42 182
ATOM    182  CB  TRP     5      66.066  37.764  41.820  1.00  0.00     0.059 C 
BRANCH 182 183
ATOM    183  CG  TRP     5      66.799  39.104  41.658  1.00  0.00    -0.016 A 
ATOM    184  CD1 TRP     5      67.742  39.636  42.437  1.00  0.00     0.097 A 
ATOM    185  NE1 TRP     5      68.278  40.700  41.839  1.00  0.00    -0.365 N 
ATOM    186  CE2 TRP     5      67.677  40.893  40.666  1.00  0.00     0.042 A 
ATOM    187  HE1 TRP     5      69.053  41.224  42.189  1.00 99.99     0.165 HD
ATOM    188  CD2 TRP     5      66.721  39.899  40.528  1.00  0.00    -0.001 A 
ATOM    189  CZ2 TRP     5      67.899  41.786  39.627  1.00  0.00     0.030 A 
ATOM    190  CE3 TRP     5      65.980  39.789  39.360  1.00  0.00     0.014 A 
ATOM    191  CZ3 TRP     5      66.210  40.675  38.311  1.00  0.00     0.001 A 
ATOM    192  CH2 TRP     5      67.169  41.676  38.451  1.00  0.00     0.002 A 
ENDBRANCH 182 183
ENDBRANCH  42 182
ENDBRANCH  39  42
ENDBRANCH  34  38
ENDBRANCH  31  34
ENDBRANCH  17  30
ENDBRANCH  15  17
ENDBRANCH   8  13
ENDBRANCH   5   6
BRANCH   5 193
ATOM    193  CB  ARG     1      61.359  41.580  38.180  1.00  0.00     0.042 C 
BRANCH 193 194
ATOM    194  CG  ARG     1      61.807  41.645  39.654  1.00  0.00     0.027 C 
BRANCH 194 195
ATOM    195  CD  ARG     1      62.547  40.376  40.104  1.00  0.00     0.116 C 
BRANCH 195 196
ATOM    196  NE  ARG     1      61.627  39.223  40.197  1.00  0.00    -0.212 N 
ATOM    197  HE  ARG     1      60.712  39.437  40.531  1.00 99.99     0.178 HD
ATOM    198  CZ  ARG     1      61.904  37.942  39.904  1.00  0.00     0.666 C 
ATOM    199  NH2 ARG     1      60.983  36.998  40.051  1.00  0.00    -0.235 N 
ATOM    200  NH1 ARG     1      63.096  37.557  39.465  1.00  0.00    -0.235 N 
ATOM    201 2HH2 ARG     1      60.071  37.220  40.391  1.00 99.99     0.174 HD
ATOM    202 1HH2 ARG     1      61.209  36.052  39.825  1.00 99.99     0.174 HD
ATOM    203 1HH1 ARG     1      63.270  36.598  39.252  1.00 99.99     0.174 HD
ATOM    204 2HH1 ARG     1      63.815  38.240  39.349  1.00 99.99     0.174 HD
ENDBRANCH 195 196
ENDBRANCH 194 195
ENDBRANCH 193 194
ENDBRANCH   5 193
ENDBRANCH   1   5
TORSDOF 83
ENDMDL
MODEL 7
REMARK VINA RESULT:      -3.3      2.730      6.977
REMARK WARNING: 32 MAX_TORS EXCEEDED!!!
REMARK  83 active torsions:
REMARK  status: ('A' for Active; 'I' for Inactive)
REMARK    1  A    between atoms: N_1  and  CA_2 
REMARK    2  A    between atoms: CA_2  and  C_3 
REMARK    3  A    between atoms: CA_2  and  CB_5 
REMARK       I    between atoms: C_3  and  N_20 
REMARK    4  A    between atoms: CB_5  and  CG_6 
REMARK    5  A    between atoms: CG_6  and  CD_7 
REMARK    6  A    between atoms: CD_7  and  NE_8 
REMARK       I    between atoms: NE_8  and  CZ_9 
REMARK       I    between atoms: CZ_9  and  NH2_11 
REMARK       I    between atoms: CZ_9  and  NH1_10 
REMARK    7  A    between atoms: CA_21  and  C_22 
REMARK       I    between atoms: C_22  and  N_27 
REMARK    8  A    between atoms: N_27  and  CA_28 
REMARK    9  A    between atoms: CA_28  and  CB_31 
REMARK   10  A    between atoms: CA_28  and  C_29 
REMARK       I    between atoms: C_29  and  N_44 
REMARK   11  A    between atoms: CB_31  and  CG_32 
REMARK   12  A    between atoms: CG_32  and  CD_33 
REMARK   13  A    between atoms: CD_33  and  NE_34 
REMARK       I    between atoms: NE_34  and  CZ_35 
REMARK       I    between atoms: CZ_35  and  NH1_36 
REMARK       I    between atoms: CZ_35  and  NH2_37 
REMARK   14  A    between atoms: N_44  and  CA_45 
REMARK   15  A    between atoms: CA_45  and  CB_48 
REMARK   16  A    between atoms: CA_45  and  C_46 
REMARK       I    between atoms: C_46  and  N_52 
REMARK   17  A    between atoms: CB_48  and  SG_49 
REMARK   18  A    between atoms: N_52  and  CA_53 
REMARK   19  A    between atoms: CA_53  and  C_54 
REMARK   20  A    between atoms: CA_53  and  CB_56 
REMARK       I    between atoms: C_54  and  N_68 
REMARK   21  A    between atoms: CB_56  and  CG_57 
REMARK   22  A    between atoms: N_68  and  CA_69 
REMARK   23  A    between atoms: CA_69  and  C_70 
REMARK   24  A    between atoms: CA_69  and  CB_72 
REMARK       I    between atoms: C_70  and  N_77 
REMARK   25  A    between atoms: CB_72  and  CG1_73 
REMARK   26  A    between atoms: N_77  and  CA_78 
REMARK   27  A    between atoms: CA_78  and  CB_81 
REMARK   28  A    between atoms: CA_78  and  C_79 
REMARK       I    between atoms: C_79  and  N_90 
REMARK   29  A    between atoms: CB_81  and  CG_82 
REMARK   30  A    between atoms: CG_82  and  CD_83 
REMARK   31  A    between atoms: CD_83  and  CE_84 
REMARK   32  A    between atoms: CE_84  and  NZ_85 
REMARK   33  A    between atoms: N_90  and  CA_91 
REMARK   34  A    between atoms: CA_91  and  CB_94 
REMARK   35  A    between atoms: CA_91  and  C_92 
REMARK       I    between atoms: C_92  and  N_99 
REMARK   36  A    between atoms: CB_94  and  CG1_95 
REMARK   37  A    between atoms: N_99  and  CA_100 
REMARK   38  A    between atoms: CA_100  and  CB_103 
REMARK   39  A    between atoms: CA_100  and  C_101 
REMARK       I    between atoms: C_101  and  N_112 
REMARK   40  A    between atoms: CB_103  and  CG_104 
REMARK   41  A    between atoms: CG_104  and  CD_105 
REMARK   42  A    between atoms: CD_105  and  CE_106 
REMARK   43  A    between atoms: CE_106  and  NZ_107 
REMARK   44  A    between atoms: N_112  and  CA_113 
REMARK   45  A    between atoms: CA_113  and  C_114 
REMARK   46  A    between atoms: CA_113  and  CB_116 
REMARK       I    between atoms: C_114  and  N_124 
REMARK   47  A    between atoms: CB_116  and  CG_117 
REMARK   48  A    between atoms: N_124  and  CA_125 
REMARK   49  A    between atoms: CA_125  and  C_126 
REMARK   50  A    between atoms: CA_125  and  CB_128 
REMARK       I    between atoms: C_126  and  N_141 
REMARK   51  A    between atoms: CB_128  and  CG_129 
REMARK   52  A    between atoms: CG_129  and  CD_130 
REMARK   53  A    between atoms: CD_130  and  NE_131 
REMARK       I    between atoms: NE_131  and  CZ_132 
REMARK       I    between atoms: CZ_132  and  NH1_133 
REMARK   54  A    between atoms: N_141  and  CA_142 
REMARK   55  A    between atoms: CA_142  and  C_143 
REMARK   56  A    between atoms: CA_142  and  CB_145 
REMARK       I    between atoms: C_143  and  N_149 
REMARK   57  A    between atoms: CB_145  and  SG_146 
REMARK   58  A    between atoms: N_149  and  CA_150 
REMARK   59  A    between atoms: CA_150  and  C_151 
REMARK   60  A    between atoms: CA_150  and  CB_153 
REMARK       I    between atoms: C_151  and  N_162 
REMARK   61  A    between atoms: CB_153  and  CG_154 
REMARK   62  A    between atoms: CG_154  and  CD_155 
REMARK   63  A    between atoms: CD_155  and  CE_156 
REMARK   64  A    between atoms: CE_156  and  NZ_157 
REMARK   65  A    between atoms: N_162  and  CA_163 
REMARK   66  A    between atoms: CA_163  and  C_164 
REMARK   67  A    between atoms: CA_163  and  CB_166 
REMARK       I    between atoms: C_164  and  N_170 
REMARK   68  A    between atoms: CB_166  and  OG_167 
REMARK   69  A    between atoms: N_170  and  CA_171 
REMARK   70  A    between atoms: CA_171  and  CB_174 
REMARK   71  A    between atoms: CA_171  and  C_172 
REMARK       I    between atoms: C_172  and  N_179 
REMARK   72  A    between atoms: CB_174  and  CG_175 
REMARK   73  A    between atoms: N_179  and  CA_180 
REMARK   74  A    between atoms: CA_180  and  C_181 
REMARK   75  A    between atoms: CA_180  and  CB_183 
REMARK       I    between atoms: C_181  and  N_192 
REMARK   76  A    between atoms: CB_183  and  CG_184 
REMARK   77  A    between atoms: CG_184  and  CD_185 
REMARK   78  A    between atoms: CD_185  and  CE_186 
REMARK   79  A    between atoms: CE_186  and  NZ_187 
REMARK   80  A    between atoms: N_192  and  CA_193 
REMARK   81  A    between atoms: CA_193  and  C_194 
REMARK   82  A    between atoms: CA_193  and  CB_196 
REMARK   83  A    between atoms: CB_196  and  CG_197 
ROOT
ATOM      1  N   ARG     1      60.120  43.646  38.118  1.00  0.00    -0.058 N 
ATOM      2  H1  ARG     1      59.435  43.955  37.459  1.00 99.99     0.276 HD
ATOM      3  H2  ARG     1      59.944  44.097  38.976  1.00 99.99     0.276 HD
ATOM      4  H3  ARG     1      61.013  43.956  37.836  1.00 99.99     0.276 HD
ENDROOT
BRANCH   1   5
ATOM      5  CA  ARG     1      60.015  42.163  38.227  1.00  0.00     0.255 C 
BRANCH   5   6
ATOM      6  C   ARG     1      58.880  41.831  39.222  1.00  0.00     0.262 C 
ATOM      7  N   PRO     2      58.342  40.604  39.202  1.00  0.00    -0.312 N 
ATOM      8  CA  PRO     2      57.422  40.148  40.262  1.00  0.00     0.163 C 
ATOM      9  CD  PRO     2      58.503  39.572  38.159  1.00  0.00     0.105 C 
ATOM     10  CB  PRO     2      56.868  38.815  39.757  1.00  0.00     0.034 C 
ATOM     11  CG  PRO     2      57.954  38.299  38.811  1.00  0.00     0.027 C 
ATOM     12  O   ARG     1      58.397  42.740  39.904  1.00  0.00    -0.270 OA
BRANCH   8  13
ATOM     13  C   PRO     2      58.190  40.018  41.587  1.00  0.00     0.251 C 
ATOM     14  O   PRO     2      59.166  39.276  41.676  1.00  0.00    -0.271 OA
ATOM     15  N   ARG     3      57.834  40.877  42.538  1.00  0.00    -0.338 N 
ATOM     16  H   ARG     3      57.149  41.592  42.380  1.00 99.99     0.164 HD
BRANCH  15  17
ATOM     17  CA  ARG     3      58.429  40.875  43.886  1.00  0.00     0.159 C 
BRANCH  17  18
ATOM     18  CB  ARG     3      57.990  39.620  44.661  1.00  0.00     0.034 C 
BRANCH  18  19
ATOM     19  CG  ARG     3      56.971  39.948  45.759  1.00  0.00     0.027 C 
BRANCH  19  20
ATOM     20  CD  ARG     3      55.544  40.121  45.228  1.00  0.00     0.116 C 
BRANCH  20  21
ATOM     21  NE  ARG     3      54.858  38.824  45.106  1.00  0.00    -0.212 N 
ATOM     22  CZ  ARG     3      54.675  38.126  43.980  1.00  0.00     0.666 C 
ATOM     23  NH1 ARG     3      55.102  38.563  42.800  1.00  0.00    -0.235 N 
ATOM     24  NH2 ARG     3      54.097  36.934  44.022  1.00  0.00    -0.235 N 
ATOM     25 1HH1 ARG     3      54.959  38.020  41.978  1.00 99.99     0.174 HD
ATOM     26 2HH1 ARG     3      55.572  39.443  42.755  1.00 99.99     0.174 HD
ATOM     27 1HH2 ARG     3      53.972  36.419  43.176  1.00 99.99     0.174 HD
ATOM     28 2HH2 ARG     3      53.796  36.547  44.892  1.00 99.99     0.174 HD
ATOM     29  HE  ARG     3      54.492  38.457  45.959  1.00 99.99     0.178 HD
ENDBRANCH  20  21
ENDBRANCH  19  20
ENDBRANCH  18  19
ENDBRANCH  17  18
BRANCH  17  30
ATOM     30  C   ARG     3      59.954  40.895  43.770  1.00  0.00     0.251 C 
ATOM     31  N   CYS     4      60.554  39.769  44.147  1.00  0.00    -0.337 N 
ATOM     32  H   CYS     4      60.043  39.029  44.583  1.00 99.99     0.164 HD
ATOM     33  O   ARG     3      60.550  41.912  43.410  1.00  0.00    -0.271 OA
BRANCH  31  34
ATOM     34  CA  CYS     4      62.001  39.521  44.028  1.00  0.00     0.170 C 
BRANCH  34  35
ATOM     35  CB  CYS     4      62.700  40.002  45.307  1.00  0.00     0.085 C 
BRANCH  35  36
ATOM     36  SG  CYS     4      62.704  38.802  46.690  1.00  0.00    -0.165 SA
ATOM     37  HG  CYS     4      61.735  38.030  46.205  1.00 99.99     0.102 HD
ENDBRANCH  35  36
ENDBRANCH  34  35
BRANCH  34  38
ATOM     38  C   CYS     4      62.271  38.015  43.889  1.00  0.00     0.252 C 
ATOM     39  N   TRP     5      63.531  37.688  43.618  1.00  0.00    -0.337 N 
ATOM     40  H   TRP     5      64.220  38.370  43.383  1.00 99.99     0.164 HD
ATOM     41  O   CYS     4      61.362  37.193  44.005  1.00  0.00    -0.271 OA
BRANCH  39  42
ATOM     42  CA  TRP     5      64.009  36.294  43.583  1.00  0.00     0.164 C 
BRANCH  42  43
ATOM     43  C   TRP     5      65.398  36.223  44.211  1.00  0.00     0.251 C 
ATOM     44  O   TRP     5      65.983  35.146  44.356  1.00  0.00    -0.271 OA
ATOM     45  N   ILE     6      65.997  37.407  44.326  1.00  0.00    -0.338 N 
ATOM     46  H   ILE     6      65.537  38.239  44.022  1.00 99.99     0.164 HD
BRANCH  45  47
ATOM     47  CA  ILE     6      67.345  37.594  44.896  1.00  0.00     0.159 C 
BRANCH  47  48
ATOM     48  C   ILE     6      67.339  38.615  46.052  1.00  0.00     0.251 C 
ATOM     49  N   LYS     7      68.518  38.950  46.590  1.00  0.00    -0.338 N 
ATOM     50  H   LYS     7      69.367  38.527  46.278  1.00 99.99     0.164 HD
ATOM     51  O   ILE     6      66.272  39.082  46.451  1.00  0.00    -0.271 OA
BRANCH  49  52
ATOM     52  CA  LYS     7      68.677  39.904  47.707  1.00  0.00     0.159 C 
BRANCH  52  53
ATOM     53  CB  LYS     7      68.073  41.244  47.258  1.00  0.00     0.032 C 
BRANCH  53  54
ATOM     54  CG  LYS     7      69.085  42.394  47.239  1.00  0.00     0.004 C 
BRANCH  54  55
ATOM     55  CD  LYS     7      70.183  42.135  46.207  1.00  0.00     0.032 C 
BRANCH  55  56
ATOM     56  CE  LYS     7      70.291  43.302  45.225  1.00  0.00     0.206 C 
BRANCH  56  57
ATOM     57  NZ  LYS     7      68.969  43.662  44.689  1.00  0.00    -0.064 N 
ATOM     58  HZ3 LYS     7      68.723  44.580  44.999  1.00 99.99     0.275 HD
ATOM     59  HZ2 LYS     7      68.289  43.006  45.011  1.00 99.99     0.275 HD
ATOM     60  HZ1 LYS     7      69.000  43.647  43.689  1.00 99.99     0.275 HD
ENDBRANCH  56  57
ENDBRANCH  55  56
ENDBRANCH  54  55
ENDBRANCH  53  54
ENDBRANCH  52  53
BRANCH  52  61
ATOM     61  C   LYS     7      68.073  39.380  49.033  1.00  0.00     0.251 C 
ATOM     62  O   LYS     7      67.222  40.004  49.668  1.00  0.00    -0.271 OA
ATOM     63  N   ILE     8      68.582  38.220  49.442  1.00  0.00    -0.338 N 
ATOM     64  H   ILE     8      69.228  37.725  48.849  1.00 99.99     0.164 HD
BRANCH  63  65
ATOM     65  CA  ILE     8      68.174  37.449  50.636  1.00  0.00     0.159 C 
BRANCH  65  66
ATOM     66  CB  ILE     8      68.732  38.121  51.921  1.00  0.00     0.029 C 
ATOM     67  CG2 ILE     8      68.686  37.187  53.147  1.00  0.00     0.002 C 
BRANCH  66  68
ATOM     68  CG1 ILE     8      70.128  38.721  51.672  1.00  0.00     0.002 C 
ATOM     69  CD  ILE     8      71.300  37.736  51.798  1.00  0.00     0.000 C 
ENDBRANCH  66  68
ENDBRANCH  65  66
BRANCH  65  70
ATOM     70  C   ILE     8      66.634  37.338  50.639  1.00  0.00     0.251 C 
ATOM     71  O   ILE     8      66.069  36.509  49.928  1.00  0.00    -0.271 OA
ATOM     72  N   LYS     9      65.973  38.166  51.447  1.00  0.00    -0.338 N 
ATOM     73  H   LYS     9      66.443  38.823  52.035  1.00 99.99     0.164 HD
BRANCH  72  74
ATOM     74  CA  LYS     9      64.500  38.161  51.559  1.00  0.00     0.159 C 
BRANCH  74  75
ATOM     75  CB  LYS     9      64.080  37.696  52.966  1.00  0.00     0.032 C 
BRANCH  75  76
ATOM     76  CG  LYS     9      65.222  37.234  53.873  1.00  0.00     0.004 C 
BRANCH  76  77
ATOM     77  CD  LYS     9      65.010  35.758  54.222  1.00  0.00     0.032 C 
BRANCH  77  78
ATOM     78  CE  LYS     9      64.030  35.569  55.381  1.00  0.00     0.206 C 
BRANCH  78  79
ATOM     79  NZ  LYS     9      64.501  36.288  56.573  1.00  0.00    -0.064 N 
ATOM     80  HZ3 LYS     9      65.417  35.967  56.816  1.00 99.99     0.275 HD
ATOM     81  HZ2 LYS     9      63.877  36.118  57.337  1.00 99.99     0.275 HD
ATOM     82  HZ1 LYS     9      64.534  37.269  56.383  1.00 99.99     0.275 HD
ENDBRANCH  78  79
ENDBRANCH  77  78
ENDBRANCH  76  77
ENDBRANCH  75  76
ENDBRANCH  74  75
BRANCH  74  83
ATOM     83  C   LYS     9      63.923  39.558  51.275  1.00  0.00     0.251 C 
ATOM     84  N   PHE    10      63.995  39.986  50.013  1.00  0.00    -0.337 N 
ATOM     85  H   PHE    10      64.285  39.399  49.257  1.00 99.99     0.164 HD
ATOM     86  O   LYS     9      63.429  40.242  52.174  1.00  0.00    -0.271 OA
BRANCH  84  87
ATOM     87  CA  PHE    10      63.515  41.335  49.641  1.00  0.00     0.164 C 
BRANCH  87  88
ATOM     88  C   PHE    10      62.089  41.338  49.073  1.00  0.00     0.251 C 
ATOM     89  O   PHE    10      61.779  42.035  48.106  1.00  0.00    -0.271 OA
ATOM     90  N   ARG    11      61.243  40.519  49.699  1.00  0.00    -0.338 N 
ATOM     91  H   ARG    11      61.545  39.964  50.473  1.00 99.99     0.164 HD
BRANCH  90  92
ATOM     92  CA  ARG    11      59.836  40.322  49.308  1.00  0.00     0.159 C 
BRANCH  92  93
ATOM     93  C   ARG    11      58.916  41.439  49.838  1.00  0.00     0.251 C 
ATOM     94  O   ARG    11      59.174  42.061  50.872  1.00  0.00    -0.271 OA
ATOM     95  N   CYS    12      57.845  41.705  49.092  1.00  0.00    -0.337 N 
ATOM     96  H   CYS    12      57.753  41.331  48.165  1.00 99.99     0.164 HD
BRANCH  95  97
ATOM     97  CA  CYS    12      56.851  42.708  49.501  1.00  0.00     0.170 C 
BRANCH  97  98
ATOM     98  C   CYS    12      55.609  42.114  50.175  1.00  0.00     0.252 C 
ATOM     99  O   CYS    12      54.702  42.828  50.605  1.00  0.00    -0.271 OA
ATOM    100  N   LYS    13      55.543  40.782  50.084  1.00  0.00    -0.337 N 
ATOM    101  H   LYS    13      56.137  40.307  49.438  1.00 99.99     0.164 HD
BRANCH 100 102
ATOM    102  CA  LYS    13      54.546  39.949  50.776  1.00  0.00     0.159 C 
BRANCH 102 103
ATOM    103  C   LYS    13      54.853  39.597  52.243  1.00  0.00     0.251 C 
ATOM    104  O   LYS    13      53.944  39.594  53.072  1.00  0.00    -0.271 OA
ATOM    105  N   SER    14      56.131  39.408  52.588  1.00  0.00    -0.336 N 
ATOM    106  H   SER    14      56.888  39.478  51.940  1.00 99.99     0.164 HD
BRANCH 105 107
ATOM    107  CA  SER    14      56.553  38.931  53.922  1.00  0.00     0.189 C 
BRANCH 107 108
ATOM    108  C   SER    14      57.056  40.003  54.908  1.00  0.00     0.253 C 
ATOM    109  O   SER    14      57.687  40.988  54.520  1.00  0.00    -0.270 OA
ATOM    110  N   LEU    15      56.826  39.764  56.198  1.00  0.00    -0.337 N 
ATOM    111  H   LEU    15      56.306  38.966  56.499  1.00 99.99     0.164 HD
BRANCH 110 112
ATOM    112  CA  LEU    15      57.419  40.558  57.288  1.00  0.00     0.159 C 
BRANCH 112 113
ATOM    113  CB  LEU    15      56.514  40.630  58.526  1.00  0.00     0.032 C 
BRANCH 113 114
ATOM    114  CG  LEU    15      55.779  39.327  58.848  1.00  0.00     0.002 C 
ATOM    115  CD2 LEU    15      54.338  39.592  59.304  1.00  0.00     0.000 C 
ATOM    116  CD1 LEU    15      56.540  38.596  59.955  1.00  0.00     0.000 C 
ENDBRANCH 113 114
ENDBRANCH 112 113
BRANCH 112 117
ATOM    117  C   LEU    15      58.744  39.939  57.711  1.00  0.00     0.251 C 
ATOM    118  N   LYS    16      59.417  40.651  58.607  1.00  0.00    -0.338 N 
ATOM    119  H   LYS    16      59.057  41.499  58.994  1.00 99.99     0.164 HD
ATOM    120  O   LEU    15      59.098  38.841  57.274  1.00  0.00    -0.271 OA
BRANCH 118 121
ATOM    121  CA  LYS    16      60.685  40.201  59.182  1.00  0.00     0.159 C 
BRANCH 121 122
ATOM    122  C   LYS    16      61.854  40.821  58.406  1.00  0.00     0.251 C 
ATOM    123  O   LYS    16      62.763  41.438  58.964  1.00  0.00    -0.271 OA
ATOM    124  N   PHE    17      61.878  40.400  57.152  1.00  0.00    -0.336 N 
ATOM    125  H   PHE    17      61.325  39.615  56.870  1.00 99.99     0.164 HD
BRANCH 124 126
ATOM    126  CA  PHE    17      62.658  40.995  56.059  1.00  0.00     0.172 C 
BRANCH 126 127
ATOM    127  C   PHE    17      61.756  40.913  54.807  1.00  0.00     0.207 C 
ATOM    128  O   PHE    17      61.737  41.901  54.044  1.00 99.99    -0.646 OA
ATOM    129  OXT PHE    17      60.886  40.007  54.841  1.00 99.99    -0.646 OA
ENDBRANCH 126 127
BRANCH 126 130
ATOM    130  CB  PHE    17      63.898  40.107  55.937  1.00  0.00     0.058 C 
BRANCH 130 131
ATOM    131  CG  PHE    17      65.226  40.861  55.811  1.00  0.00    -0.044 A 
ATOM    132  CD1 PHE    17      65.552  41.842  56.735  1.00  0.00     0.008 A 
ATOM    133  CE1 PHE    17      66.837  42.362  56.769  1.00  0.00     0.001 A 
ATOM    134  CZ  PHE    17      67.806  41.889  55.884  1.00  0.00     0.000 A 
ATOM    135  CE2 PHE    17      67.469  40.907  54.950  1.00  0.00     0.001 A 
ATOM    136  CD2 PHE    17      66.175  40.400  54.916  1.00  0.00     0.008 A 
ENDBRANCH 130 131
ENDBRANCH 126 130
ENDBRANCH 124 126
ENDBRANCH 121 122
BRANCH 121 137
ATOM    137  CB  LYS    16      60.758  38.669  59.137  1.00  0.00     0.032 C 
BRANCH 137 138
ATOM    138  CG  LYS    16      61.596  38.126  60.297  1.00  0.00     0.004 C 
BRANCH 138 139
ATOM    139  CD  LYS    16      63.059  37.914  59.916  1.00  0.00     0.032 C 
BRANCH 139 140
ATOM    140  CE  LYS    16      63.941  38.734  60.858  1.00  0.00     0.206 C 
BRANCH 140 141
ATOM    141  NZ  LYS    16      65.108  39.276  60.153  1.00  0.00    -0.064 N 
ATOM    142  HZ2 LYS    16      65.726  38.528  59.912  1.00 99.99     0.275 HD
ATOM    143  HZ1 LYS    16      65.584  39.921  60.752  1.00 99.99     0.275 HD
ATOM    144  HZ3 LYS    16      64.809  39.748  59.324  1.00 99.99     0.275 HD
ENDBRANCH 140 141
ENDBRANCH 139 140
ENDBRANCH 138 139
ENDBRANCH 137 138
ENDBRANCH 121 137
ENDBRANCH 118 121
ENDBRANCH 112 117
ENDBRANCH 110 112
ENDBRANCH 107 108
BRANCH 107 145
ATOM    145  CB  SER    14      57.610  37.834  53.738  1.00  0.00     0.169 C 
BRANCH 145 146
ATOM    146  OG  SER    14      58.818  38.204  54.414  1.00  0.00    -0.380 OA
ATOM    147  HG  SER    14      59.223  37.381  54.817  1.00 99.99     0.211 HD
ENDBRANCH 145 146
ENDBRANCH 107 145
ENDBRANCH 105 107
ENDBRANCH 102 103
BRANCH 102 148
ATOM    148  CB  LYS    13      54.227  38.671  49.975  1.00  0.00     0.032 C 
BRANCH 148 149
ATOM    149  CG  LYS    13      52.764  38.227  50.124  1.00  0.00     0.004 C 
BRANCH 149 150
ATOM    150  CD  LYS    13      52.642  36.960  50.977  1.00  0.00     0.032 C 
BRANCH 150 151
ATOM    151  CE  LYS    13      51.410  37.001  51.881  1.00  0.00     0.206 C 
BRANCH 151 152
ATOM    152  NZ  LYS    13      51.571  38.049  52.900  1.00  0.00    -0.064 N 
ATOM    153  HZ1 LYS    13      51.047  37.809  53.715  1.00 99.99     0.275 HD
ATOM    154  HZ2 LYS    13      52.538  38.150  53.130  1.00 99.99     0.275 HD
ATOM    155  HZ3 LYS    13      51.226  38.913  52.526  1.00 99.99     0.275 HD
ENDBRANCH 151 152
ENDBRANCH 150 151
ENDBRANCH 149 150
ENDBRANCH 148 149
ENDBRANCH 102 148
ENDBRANCH 100 102
ENDBRANCH  97  98
BRANCH  97 156
ATOM    156  CB  CYS    12      56.427  43.569  48.305  1.00  0.00     0.085 C 
BRANCH 156 157
ATOM    157  SG  CYS    12      57.723  43.621  47.014  1.00  0.00    -0.165 SA
ATOM    158  HG  CYS    12      58.758  43.500  47.838  1.00 99.99     0.102 HD
ENDBRANCH 156 157
ENDBRANCH  97 156
ENDBRANCH  95  97
ENDBRANCH  92  93
BRANCH  92 159
ATOM    159  CB  ARG    11      59.398  38.937  49.810  1.00  0.00     0.034 C 
BRANCH 159 160
ATOM    160  CG  ARG    11      59.065  37.974  48.668  1.00  0.00     0.027 C 
BRANCH 160 161
ATOM    161  CD  ARG    11      59.443  36.543  49.054  1.00  0.00     0.116 C 
BRANCH 161 162
ATOM    162  NE  ARG    11      60.867  36.315  48.756  1.00  0.00    -0.212 N 
ATOM    163  HE  ARG    11      61.104  36.341  47.788  1.00 99.99     0.178 HD
ATOM    164  CZ  ARG    11      61.840  36.079  49.645  1.00  0.00     0.666 C 
ATOM    165  NH1 ARG    11      61.605  36.020  50.950  1.00  0.00    -0.235 N 
ATOM    166  NH2 ARG    11      63.084  35.886  49.235  1.00  0.00    -0.235 N 
ATOM    167 2HH1 ARG    11      60.668  36.143  51.279  1.00 99.99     0.174 HD
ATOM    168 1HH1 ARG    11      62.346  35.842  51.591  1.00 99.99     0.174 HD
ATOM    169 1HH2 ARG    11      63.800  35.709  49.907  1.00 99.99     0.174 HD
ATOM    170 2HH2 ARG    11      63.308  35.909  48.262  1.00 99.99     0.174 HD
ENDBRANCH 161 162
ENDBRANCH 160 161
ENDBRANCH 159 160
ENDBRANCH  92 159
ENDBRANCH  90  92
ENDBRANCH  87  88
BRANCH  87 171
ATOM    171  CB  PHE    10      64.514  42.060  48.728  1.00  0.00     0.056 C 
BRANCH 171 172
ATOM    172  CG  PHE    10      64.846  43.509  49.132  1.00  0.00    -0.044 A 
ATOM    173  CD2 PHE    10      66.066  44.070  48.807  1.00  0.00     0.008 A 
ATOM    174  CE2 PHE    10      66.351  45.379  49.166  1.00  0.00     0.001 A 
ATOM    175  CZ  PHE    10      65.401  46.137  49.853  1.00  0.00     0.000 A 
ATOM    176  CE1 PHE    10      64.177  45.557  50.195  1.00  0.00     0.001 A 
ATOM    177  CD1 PHE    10      63.903  44.246  49.827  1.00  0.00     0.008 A 
ENDBRANCH 171 172
ENDBRANCH  87 171
ENDBRANCH  84  87
ENDBRANCH  74  83
ENDBRANCH  72  74
ENDBRANCH  65  70
ENDBRANCH  63  65
ENDBRANCH  52  61
ENDBRANCH  49  52
ENDBRANCH  47  48
BRANCH  47 178
ATOM    178  CB  ILE     6      68.353  37.947  43.777  1.00  0.00     0.029 C 
ATOM    179  CG2 ILE     6      68.705  36.668  43.001  1.00  0.00     0.002 C 
BRANCH 178 180
ATOM    180  CG1 ILE     6      67.850  39.089  42.873  1.00  0.00     0.002 C 
ATOM    181  CD  ILE     6      68.188  40.498  43.377  1.00  0.00     0.000 C 
ENDBRANCH 178 180
ENDBRANCH  47 178
ENDBRANCH  45  47
ENDBRANCH  42  43
BRANCH  42 182
ATOM    182  CB  TRP     5      64.060  35.775  42.140  1.00  0.00     0.059 C 
BRANCH 182 183
ATOM    183  CG  TRP     5      64.446  36.811  41.073  1.00  0.00    -0.016 A 
ATOM    184  CD1 TRP     5      65.653  37.297  40.783  1.00  0.00     0.097 A 
ATOM    185  NE1 TRP     5      65.600  38.003  39.654  1.00  0.00    -0.365 N 
ATOM    186  CE2 TRP     5      64.348  38.007  39.199  1.00  0.00     0.042 A 
ATOM    187  HE1 TRP     5      66.389  38.405  39.192  1.00 99.99     0.165 HD
ATOM    188  CD2 TRP     5      63.587  37.267  40.088  1.00  0.00    -0.001 A 
ATOM    189  CZ2 TRP     5      63.766  38.509  38.043  1.00  0.00     0.030 A 
ATOM    190  CE3 TRP     5      62.245  37.022  39.836  1.00  0.00     0.014 A 
ATOM    191  CZ3 TRP     5      61.661  37.512  38.671  1.00  0.00     0.001 A 
ATOM    192  CH2 TRP     5      62.426  38.259  37.778  1.00  0.00     0.002 A 
ENDBRANCH 182 183
ENDBRANCH  42 182
ENDBRANCH  39  42
ENDBRANCH  34  38
ENDBRANCH  31  34
ENDBRANCH  17  30
ENDBRANCH  15  17
ENDBRANCH   8  13
ENDBRANCH   5   6
BRANCH   5 193
ATOM    193  CB  ARG     1      61.345  41.562  38.727  1.00  0.00     0.042 C 
BRANCH 193 194
ATOM    194  CG  ARG     1      61.651  41.794  40.221  1.00  0.00     0.027 C 
BRANCH 194 195
ATOM    195  CD  ARG     1      62.536  40.691  40.822  1.00  0.00     0.116 C 
BRANCH 195 196
ATOM    196  NE  ARG     1      63.900  41.188  41.097  1.00  0.00    -0.212 N 
ATOM    197  HE  ARG     1      64.607  40.852  40.478  1.00 99.99     0.178 HD
ATOM    198  CZ  ARG     1      64.276  42.012  42.089  1.00  0.00     0.666 C 
ATOM    199  NH2 ARG     1      65.547  42.366  42.232  1.00  0.00    -0.235 N 
ATOM    200  NH1 ARG     1      63.412  42.502  42.970  1.00  0.00    -0.235 N 
ATOM    201 2HH2 ARG     1      66.249  42.020  41.611  1.00 99.99     0.174 HD
ATOM    202 1HH2 ARG     1      65.805  42.982  42.975  1.00 99.99     0.174 HD
ATOM    203 1HH1 ARG     1      63.722  43.114  43.693  1.00 99.99     0.174 HD
ATOM    204 2HH1 ARG     1      62.449  42.250  42.896  1.00 99.99     0.174 HD
ENDBRANCH 195 196
ENDBRANCH 194 195
ENDBRANCH 193 194
ENDBRANCH   5 193
ENDBRANCH   1   5
TORSDOF 83
ENDMDL
MODEL 8
REMARK VINA RESULT:      -3.3      2.815      9.100
REMARK WARNING: 32 MAX_TORS EXCEEDED!!!
REMARK  83 active torsions:
REMARK  status: ('A' for Active; 'I' for Inactive)
REMARK    1  A    between atoms: N_1  and  CA_2 
REMARK    2  A    between atoms: CA_2  and  C_3 
REMARK    3  A    between atoms: CA_2  and  CB_5 
REMARK       I    between atoms: C_3  and  N_20 
REMARK    4  A    between atoms: CB_5  and  CG_6 
REMARK    5  A    between atoms: CG_6  and  CD_7 
REMARK    6  A    between atoms: CD_7  and  NE_8 
REMARK       I    between atoms: NE_8  and  CZ_9 
REMARK       I    between atoms: CZ_9  and  NH2_11 
REMARK       I    between atoms: CZ_9  and  NH1_10 
REMARK    7  A    between atoms: CA_21  and  C_22 
REMARK       I    between atoms: C_22  and  N_27 
REMARK    8  A    between atoms: N_27  and  CA_28 
REMARK    9  A    between atoms: CA_28  and  CB_31 
REMARK   10  A    between atoms: CA_28  and  C_29 
REMARK       I    between atoms: C_29  and  N_44 
REMARK   11  A    between atoms: CB_31  and  CG_32 
REMARK   12  A    between atoms: CG_32  and  CD_33 
REMARK   13  A    between atoms: CD_33  and  NE_34 
REMARK       I    between atoms: NE_34  and  CZ_35 
REMARK       I    between atoms: CZ_35  and  NH1_36 
REMARK       I    between atoms: CZ_35  and  NH2_37 
REMARK   14  A    between atoms: N_44  and  CA_45 
REMARK   15  A    between atoms: CA_45  and  CB_48 
REMARK   16  A    between atoms: CA_45  and  C_46 
REMARK       I    between atoms: C_46  and  N_52 
REMARK   17  A    between atoms: CB_48  and  SG_49 
REMARK   18  A    between atoms: N_52  and  CA_53 
REMARK   19  A    between atoms: CA_53  and  C_54 
REMARK   20  A    between atoms: CA_53  and  CB_56 
REMARK       I    between atoms: C_54  and  N_68 
REMARK   21  A    between atoms: CB_56  and  CG_57 
REMARK   22  A    between atoms: N_68  and  CA_69 
REMARK   23  A    between atoms: CA_69  and  C_70 
REMARK   24  A    between atoms: CA_69  and  CB_72 
REMARK       I    between atoms: C_70  and  N_77 
REMARK   25  A    between atoms: CB_72  and  CG1_73 
REMARK   26  A    between atoms: N_77  and  CA_78 
REMARK   27  A    between atoms: CA_78  and  CB_81 
REMARK   28  A    between atoms: CA_78  and  C_79 
REMARK       I    between atoms: C_79  and  N_90 
REMARK   29  A    between atoms: CB_81  and  CG_82 
REMARK   30  A    between atoms: CG_82  and  CD_83 
REMARK   31  A    between atoms: CD_83  and  CE_84 
REMARK   32  A    between atoms: CE_84  and  NZ_85 
REMARK   33  A    between atoms: N_90  and  CA_91 
REMARK   34  A    between atoms: CA_91  and  CB_94 
REMARK   35  A    between atoms: CA_91  and  C_92 
REMARK       I    between atoms: C_92  and  N_99 
REMARK   36  A    between atoms: CB_94  and  CG1_95 
REMARK   37  A    between atoms: N_99  and  CA_100 
REMARK   38  A    between atoms: CA_100  and  CB_103 
REMARK   39  A    between atoms: CA_100  and  C_101 
REMARK       I    between atoms: C_101  and  N_112 
REMARK   40  A    between atoms: CB_103  and  CG_104 
REMARK   41  A    between atoms: CG_104  and  CD_105 
REMARK   42  A    between atoms: CD_105  and  CE_106 
REMARK   43  A    between atoms: CE_106  and  NZ_107 
REMARK   44  A    between atoms: N_112  and  CA_113 
REMARK   45  A    between atoms: CA_113  and  C_114 
REMARK   46  A    between atoms: CA_113  and  CB_116 
REMARK       I    between atoms: C_114  and  N_124 
REMARK   47  A    between atoms: CB_116  and  CG_117 
REMARK   48  A    between atoms: N_124  and  CA_125 
REMARK   49  A    between atoms: CA_125  and  C_126 
REMARK   50  A    between atoms: CA_125  and  CB_128 
REMARK       I    between atoms: C_126  and  N_141 
REMARK   51  A    between atoms: CB_128  and  CG_129 
REMARK   52  A    between atoms: CG_129  and  CD_130 
REMARK   53  A    between atoms: CD_130  and  NE_131 
REMARK       I    between atoms: NE_131  and  CZ_132 
REMARK       I    between atoms: CZ_132  and  NH1_133 
REMARK   54  A    between atoms: N_141  and  CA_142 
REMARK   55  A    between atoms: CA_142  and  C_143 
REMARK   56  A    between atoms: CA_142  and  CB_145 
REMARK       I    between atoms: C_143  and  N_149 
REMARK   57  A    between atoms: CB_145  and  SG_146 
REMARK   58  A    between atoms: N_149  and  CA_150 
REMARK   59  A    between atoms: CA_150  and  C_151 
REMARK   60  A    between atoms: CA_150  and  CB_153 
REMARK       I    between atoms: C_151  and  N_162 
REMARK   61  A    between atoms: CB_153  and  CG_154 
REMARK   62  A    between atoms: CG_154  and  CD_155 
REMARK   63  A    between atoms: CD_155  and  CE_156 
REMARK   64  A    between atoms: CE_156  and  NZ_157 
REMARK   65  A    between atoms: N_162  and  CA_163 
REMARK   66  A    between atoms: CA_163  and  C_164 
REMARK   67  A    between atoms: CA_163  and  CB_166 
REMARK       I    between atoms: C_164  and  N_170 
REMARK   68  A    between atoms: CB_166  and  OG_167 
REMARK   69  A    between atoms: N_170  and  CA_171 
REMARK   70  A    between atoms: CA_171  and  CB_174 
REMARK   71  A    between atoms: CA_171  and  C_172 
REMARK       I    between atoms: C_172  and  N_179 
REMARK   72  A    between atoms: CB_174  and  CG_175 
REMARK   73  A    between atoms: N_179  and  CA_180 
REMARK   74  A    between atoms: CA_180  and  C_181 
REMARK   75  A    between atoms: CA_180  and  CB_183 
REMARK       I    between atoms: C_181  and  N_192 
REMARK   76  A    between atoms: CB_183  and  CG_184 
REMARK   77  A    between atoms: CG_184  and  CD_185 
REMARK   78  A    between atoms: CD_185  and  CE_186 
REMARK   79  A    between atoms: CE_186  and  NZ_187 
REMARK   80  A    between atoms: N_192  and  CA_193 
REMARK   81  A    between atoms: CA_193  and  C_194 
REMARK   82  A    between atoms: CA_193  and  CB_196 
REMARK   83  A    between atoms: CB_196  and  CG_197 
ROOT
ATOM      1  N   ARG     1      69.150  44.046  39.070  1.00  0.00    -0.058 N 
ATOM      2  H1  ARG     1      69.002  44.588  38.244  1.00 99.99     0.276 HD
ATOM      3  H2  ARG     1      68.286  43.953  39.534  1.00 99.99     0.276 HD
ATOM      4  H3  ARG     1      69.731  44.543  39.693  1.00 99.99     0.276 HD
ENDROOT
BRANCH   1   5
ATOM      5  CA  ARG     1      69.713  42.729  38.658  1.00  0.00     0.255 C 
BRANCH   5   6
ATOM      6  C   ARG     1      68.569  41.878  38.062  1.00  0.00     0.262 C 
ATOM      7  N   PRO     2      68.849  41.023  37.069  1.00  0.00    -0.312 N 
ATOM      8  CA  PRO     2      67.864  40.025  36.610  1.00  0.00     0.163 C 
ATOM      9  CD  PRO     2      70.084  40.960  36.262  1.00  0.00     0.105 C 
ATOM     10  CB  PRO     2      68.476  39.421  35.345  1.00  0.00     0.034 C 
ATOM     11  CG  PRO     2      69.981  39.618  35.533  1.00  0.00     0.027 C 
ATOM     12  O   ARG     1      67.407  42.113  38.407  1.00  0.00    -0.270 OA
BRANCH   8  13
ATOM     13  C   PRO     2      67.627  38.988  37.719  1.00  0.00     0.251 C 
ATOM     14  O   PRO     2      67.306  37.834  37.440  1.00  0.00    -0.271 OA
ATOM     15  N   ARG     3      67.963  39.378  38.945  1.00  0.00    -0.338 N 
ATOM     16  H   ARG     3      68.389  40.268  39.122  1.00 99.99     0.164 HD
BRANCH  15  17
ATOM     17  CA  ARG     3      67.768  38.535  40.138  1.00  0.00     0.159 C 
BRANCH  17  18
ATOM     18  CB  ARG     3      68.907  38.766  41.146  1.00  0.00     0.034 C 
BRANCH  18  19
ATOM     19  CG  ARG     3      69.719  37.490  41.401  1.00  0.00     0.027 C 
BRANCH  19  20
ATOM     20  CD  ARG     3      69.020  36.220  40.904  1.00  0.00     0.116 C 
BRANCH  20  21
ATOM     21  NE  ARG     3      69.869  35.478  39.956  1.00  0.00    -0.212 N 
ATOM     22  CZ  ARG     3      69.496  34.994  38.768  1.00  0.00     0.666 C 
ATOM     23  NH1 ARG     3      68.256  35.127  38.308  1.00  0.00    -0.235 N 
ATOM     24  NH2 ARG     3      70.382  34.403  37.980  1.00  0.00    -0.235 N 
ATOM     25 1HH1 ARG     3      68.005  34.762  37.416  1.00 99.99     0.174 HD
ATOM     26 2HH1 ARG     3      67.582  35.602  38.872  1.00 99.99     0.174 HD
ATOM     27 1HH2 ARG     3      70.094  34.051  37.092  1.00 99.99     0.174 HD
ATOM     28 2HH2 ARG     3      71.336  34.316  38.266  1.00 99.99     0.174 HD
ATOM     29  HE  ARG     3      70.808  35.325  40.259  1.00 99.99     0.178 HD
ENDBRANCH  20  21
ENDBRANCH  19  20
ENDBRANCH  18  19
ENDBRANCH  17  18
BRANCH  17  30
ATOM     30  C   ARG     3      66.430  38.880  40.792  1.00  0.00     0.251 C 
ATOM     31  N   CYS     4      66.125  40.176  40.780  1.00  0.00    -0.337 N 
ATOM     32  H   CYS     4      66.784  40.861  40.475  1.00 99.99     0.164 HD
ATOM     33  O   ARG     3      65.744  38.010  41.332  1.00  0.00    -0.271 OA
BRANCH  31  34
ATOM     34  CA  CYS     4      64.846  40.729  41.259  1.00  0.00     0.170 C 
BRANCH  34  35
ATOM     35  CB  CYS     4      65.115  42.053  41.988  1.00  0.00     0.085 C 
BRANCH  35  36
ATOM     36  SG  CYS     4      63.999  42.407  43.396  1.00  0.00    -0.165 SA
ATOM     37  HG  CYS     4      64.241  43.715  43.437  1.00 99.99     0.102 HD
ENDBRANCH  35  36
ENDBRANCH  34  35
BRANCH  34  38
ATOM     38  C   CYS     4      63.921  41.033  40.070  1.00  0.00     0.252 C 
ATOM     39  N   TRP     5      64.497  40.964  38.873  1.00  0.00    -0.337 N 
ATOM     40  H   TRP     5      65.483  40.863  38.762  1.00 99.99     0.164 HD
ATOM     41  O   CYS     4      62.741  41.336  40.244  1.00  0.00    -0.271 OA
BRANCH  39  42
ATOM     42  CA  TRP     5      63.744  41.089  37.612  1.00  0.00     0.164 C 
BRANCH  42  43
ATOM     43  C   TRP     5      63.059  42.452  37.568  1.00  0.00     0.251 C 
ATOM     44  O   TRP     5      63.671  43.466  37.223  1.00  0.00    -0.271 OA
ATOM     45  N   ILE     6      61.733  42.391  37.669  1.00  0.00    -0.338 N 
ATOM     46  H   ILE     6      61.273  41.511  37.771  1.00 99.99     0.164 HD
BRANCH  45  47
ATOM     47  CA  ILE     6      60.851  43.574  37.647  1.00  0.00     0.159 C 
BRANCH  47  48
ATOM     48  C   ILE     6      59.892  43.594  38.853  1.00  0.00     0.251 C 
ATOM     49  N   LYS     7      59.879  42.521  39.655  1.00  0.00    -0.338 N 
ATOM     50  H   LYS     7      60.445  41.722  39.457  1.00 99.99     0.164 HD
ATOM     51  O   ILE     6      59.168  44.571  39.045  1.00  0.00    -0.271 OA
BRANCH  49  52
ATOM     52  CA  LYS     7      59.012  42.384  40.842  1.00  0.00     0.159 C 
BRANCH  52  53
ATOM     53  CB  LYS     7      58.578  40.912  40.930  1.00  0.00     0.032 C 
BRANCH  53  54
ATOM     54  CG  LYS     7      58.304  40.275  39.563  1.00  0.00     0.004 C 
BRANCH  54  55
ATOM     55  CD  LYS     7      59.128  39.000  39.383  1.00  0.00     0.032 C 
BRANCH  55  56
ATOM     56  CE  LYS     7      59.163  38.580  37.913  1.00  0.00     0.206 C 
BRANCH  56  57
ATOM     57  NZ  LYS     7      59.521  37.159  37.780  1.00  0.00    -0.064 N 
ATOM     58  HZ3 LYS     7      60.414  37.081  37.339  1.00 99.99     0.275 HD
ATOM     59  HZ2 LYS     7      58.832  36.694  37.226  1.00 99.99     0.275 HD
ATOM     60  HZ1 LYS     7      59.559  36.740  38.687  1.00 99.99     0.275 HD
ENDBRANCH  56  57
ENDBRANCH  55  56
ENDBRANCH  54  55
ENDBRANCH  53  54
ENDBRANCH  52  53
BRANCH  52  61
ATOM     61  C   LYS     7      59.687  42.896  42.139  1.00  0.00     0.251 C 
ATOM     62  O   LYS     7      60.277  43.976  42.200  1.00  0.00    -0.271 OA
ATOM     63  N   ILE     8      59.607  42.052  43.165  1.00  0.00    -0.338 N 
ATOM     64  H   ILE     8      59.057  41.213  43.074  1.00 99.99     0.164 HD
BRANCH  63  65
ATOM     65  CA  ILE     8      60.108  42.279  44.537  1.00  0.00     0.159 C 
BRANCH  65  66
ATOM     66  CB  ILE     8      58.950  42.761  45.454  1.00  0.00     0.029 C 
ATOM     67  CG2 ILE     8      57.780  41.757  45.510  1.00  0.00     0.002 C 
BRANCH  66  68
ATOM     68  CG1 ILE     8      59.472  43.157  46.847  1.00  0.00     0.002 C 
ATOM     69  CD  ILE     8      58.765  44.353  47.500  1.00  0.00     0.000 C 
ENDBRANCH  66  68
ENDBRANCH  65  66
BRANCH  65  70
ATOM     70  C   ILE     8      60.762  40.972  45.036  1.00  0.00     0.251 C 
ATOM     71  O   ILE     8      61.604  41.001  45.931  1.00  0.00    -0.271 OA
ATOM     72  N   LYS     9      60.359  39.839  44.461  1.00  0.00    -0.338 N 
ATOM     73  H   LYS     9      59.659  39.825  43.748  1.00 99.99     0.164 HD
BRANCH  72  74
ATOM     74  CA  LYS     9      60.891  38.517  44.850  1.00  0.00     0.159 C 
BRANCH  74  75
ATOM     75  CB  LYS     9      62.401  38.619  45.135  1.00  0.00     0.032 C 
BRANCH  75  76
ATOM     76  CG  LYS     9      63.309  38.532  43.906  1.00  0.00     0.004 C 
BRANCH  76  77
ATOM     77  CD  LYS     9      64.762  38.719  44.350  1.00  0.00     0.032 C 
BRANCH  77  78
ATOM     78  CE  LYS     9      65.019  38.158  45.750  1.00  0.00     0.206 C 
BRANCH  78  79
ATOM     79  NZ  LYS     9      66.460  37.989  45.978  1.00  0.00    -0.064 N 
ATOM     80  HZ3 LYS     9      66.694  38.318  46.894  1.00 99.99     0.275 HD
ATOM     81  HZ2 LYS     9      66.972  38.514  45.297  1.00 99.99     0.275 HD
ATOM     82  HZ1 LYS     9      66.702  37.022  45.902  1.00 99.99     0.275 HD
ENDBRANCH  78  79
ENDBRANCH  77  78
ENDBRANCH  76  77
ENDBRANCH  75  76
ENDBRANCH  74  75
BRANCH  74  83
ATOM     83  C   LYS     9      60.160  37.975  46.091  1.00  0.00     0.251 C 
ATOM     84  N   PHE    10      60.413  36.707  46.421  1.00  0.00    -0.337 N 
ATOM     85  H   PHE    10      61.128  36.164  45.981  1.00 99.99     0.164 HD
ATOM     86  O   LYS     9      59.380  38.679  46.734  1.00  0.00    -0.271 OA
BRANCH  84  87
ATOM     87  CA  PHE    10      59.726  36.071  47.567  1.00  0.00     0.164 C 
BRANCH  87  88
ATOM     88  C   PHE    10      58.196  36.115  47.459  1.00  0.00     0.251 C 
ATOM     89  O   PHE    10      57.583  35.423  46.644  1.00  0.00    -0.271 OA
ATOM     90  N   ARG    11      57.604  36.939  48.324  1.00  0.00    -0.338 N 
ATOM     91  H   ARG    11      58.143  37.473  48.975  1.00 99.99     0.164 HD
BRANCH  90  92
ATOM     92  CA  ARG    11      56.146  37.119  48.436  1.00  0.00     0.159 C 
BRANCH  92  93
ATOM     93  C   ARG    11      55.685  38.510  47.961  1.00  0.00     0.251 C 
ATOM     94  O   ARG    11      55.876  38.901  46.806  1.00  0.00    -0.271 OA
ATOM     95  N   CYS    12      55.045  39.245  48.869  1.00  0.00    -0.337 N 
ATOM     96  H   CYS    12      54.729  38.843  49.732  1.00 99.99     0.164 HD
BRANCH  95  97
ATOM     97  CA  CYS    12      54.595  40.614  48.574  1.00  0.00     0.170 C 
BRANCH  97  98
ATOM     98  C   CYS    12      55.621  41.696  48.931  1.00  0.00     0.252 C 
ATOM     99  O   CYS    12      55.793  42.685  48.217  1.00  0.00    -0.271 OA
ATOM    100  N   LYS    13      56.157  41.538  50.145  1.00  0.00    -0.337 N 
ATOM    101  H   LYS    13      55.728  40.910  50.790  1.00 99.99     0.164 HD
BRANCH 100 102
ATOM    102  CA  LYS    13      57.276  42.337  50.671  1.00  0.00     0.159 C 
BRANCH 102 103
ATOM    103  C   LYS    13      58.674  41.700  50.571  1.00  0.00     0.251 C 
ATOM    104  O   LYS    13      59.668  42.421  50.492  1.00  0.00    -0.271 OA
ATOM    105  N   SER    14      58.750  40.370  50.465  1.00  0.00    -0.336 N 
ATOM    106  H   SER    14      57.947  39.775  50.454  1.00 99.99     0.164 HD
BRANCH 105 107
ATOM    107  CA  SER    14      60.025  39.621  50.501  1.00  0.00     0.189 C 
BRANCH 107 108
ATOM    108  C   SER    14      60.699  39.479  51.880  1.00  0.00     0.253 C 
ATOM    109  O   SER    14      60.303  40.116  52.858  1.00  0.00    -0.270 OA
ATOM    110  N   LEU    15      61.767  38.685  51.927  1.00  0.00    -0.337 N 
ATOM    111  H   LEU    15      62.073  38.169  51.130  1.00 99.99     0.164 HD
BRANCH 110 112
ATOM    112  CA  LEU    15      62.662  38.601  53.095  1.00  0.00     0.159 C 
BRANCH 112 113
ATOM    113  CB  LEU    15      62.863  37.158  53.582  1.00  0.00     0.032 C 
BRANCH 113 114
ATOM    114  CG  LEU    15      62.731  36.980  55.096  1.00  0.00     0.002 C 
ATOM    115  CD2 LEU    15      62.462  38.317  55.798  1.00  0.00     0.000 C 
ATOM    116  CD1 LEU    15      64.028  36.371  55.632  1.00  0.00     0.000 C 
ENDBRANCH 113 114
ENDBRANCH 112 113
BRANCH 112 117
ATOM    117  C   LEU    15      64.029  39.170  52.735  1.00  0.00     0.251 C 
ATOM    118  N   LYS    16      64.343  39.060  51.450  1.00  0.00    -0.338 N 
ATOM    119  H   LYS    16      63.715  38.672  50.778  1.00 99.99     0.164 HD
ATOM    120  O   LEU    15      64.727  39.725  53.586  1.00  0.00    -0.271 OA
BRANCH 118 121
ATOM    121  CA  LYS    16      65.586  39.594  50.894  1.00  0.00     0.159 C 
BRANCH 121 122
ATOM    122  C   LYS    16      65.317  40.202  49.511  1.00  0.00     0.251 C 
ATOM    123  O   LYS    16      64.468  39.747  48.745  1.00  0.00    -0.271 OA
ATOM    124  N   PHE    17      65.918  41.373  49.373  1.00  0.00    -0.336 N 
ATOM    125  H   PHE    17      66.289  41.849  50.171  1.00 99.99     0.164 HD
BRANCH 124 126
ATOM    126  CA  PHE    17      66.126  42.090  48.109  1.00  0.00     0.172 C 
BRANCH 126 127
ATOM    127  C   PHE    17      67.467  41.568  47.546  1.00  0.00     0.207 C 
ATOM    128  O   PHE    17      68.512  42.135  47.927  1.00 99.99    -0.646 OA
ATOM    129  OXT PHE    17      67.364  40.849  46.521  1.00 99.99    -0.646 OA
ENDBRANCH 126 127
BRANCH 126 130
ATOM    130  CB  PHE    17      66.201  43.566  48.507  1.00  0.00     0.058 C 
BRANCH 130 131
ATOM    131  CG  PHE    17      64.883  44.174  48.998  1.00  0.00    -0.044 A 
ATOM    132  CD1 PHE    17      64.899  45.339  49.748  1.00  0.00     0.008 A 
ATOM    133  CE1 PHE    17      63.717  46.020  49.997  1.00  0.00     0.001 A 
ATOM    134  CZ  PHE    17      62.513  45.540  49.481  1.00  0.00     0.000 A 
ATOM    135  CE2 PHE    17      62.502  44.362  48.732  1.00  0.00     0.001 A 
ATOM    136  CD2 PHE    17      63.691  43.681  48.497  1.00  0.00     0.008 A 
ENDBRANCH 130 131
ENDBRANCH 126 130
ENDBRANCH 124 126
ENDBRANCH 121 122
BRANCH 121 137
ATOM    137  CB  LYS    16      66.632  38.476  50.798  1.00  0.00     0.032 C 
BRANCH 137 138
ATOM    138  CG  LYS    16      67.155  38.335  49.367  1.00  0.00     0.004 C 
BRANCH 138 139
ATOM    139  CD  LYS    16      68.667  38.523  49.274  1.00  0.00     0.032 C 
BRANCH 139 140
ATOM    140  CE  LYS    16      69.330  37.153  49.124  1.00  0.00     0.206 C 
BRANCH 140 141
ATOM    141  NZ  LYS    16      68.542  36.277  48.249  1.00  0.00    -0.064 N 
ATOM    142  HZ2 LYS    16      67.789  36.800  47.849  1.00 99.99     0.275 HD
ATOM    143  HZ1 LYS    16      68.174  35.519  48.787  1.00 99.99     0.275 HD
ATOM    144  HZ3 LYS    16      69.127  35.918  47.522  1.00 99.99     0.275 HD
ENDBRANCH 140 141
ENDBRANCH 139 140
ENDBRANCH 138 139
ENDBRANCH 137 138
ENDBRANCH 121 137
ENDBRANCH 118 121
ENDBRANCH 112 117
ENDBRANCH 110 112
ENDBRANCH 107 108
BRANCH 107 145
ATOM    145  CB  SER    14      60.993  40.253  49.493  1.00  0.00     0.169 C 
BRANCH 145 146
ATOM    146  OG  SER    14      62.080  40.877  50.187  1.00  0.00    -0.380 OA
ATOM    147  HG  SER    14      61.919  41.866  50.211  1.00 99.99     0.211 HD
ENDBRANCH 145 146
ENDBRANCH 107 145
ENDBRANCH 105 107
ENDBRANCH 102 103
BRANCH 102 148
ATOM    148  CB  LYS    13      57.004  42.805  52.115  1.00  0.00     0.032 C 
BRANCH 148 149
ATOM    149  CG  LYS    13      55.791  42.105  52.746  1.00  0.00     0.004 C 
BRANCH 149 150
ATOM    150  CD  LYS    13      56.220  41.054  53.776  1.00  0.00     0.032 C 
BRANCH 150 151
ATOM    151  CE  LYS    13      55.041  40.581  54.627  1.00  0.00     0.206 C 
BRANCH 151 152
ATOM    152  NZ  LYS    13      55.431  39.398  55.409  1.00  0.00    -0.064 N 
ATOM    153  HZ1 LYS    13      54.754  38.675  55.285  1.00 99.99     0.275 HD
ATOM    154  HZ2 LYS    13      56.331  39.080  55.114  1.00 99.99     0.275 HD
ATOM    155  HZ3 LYS    13      55.470  39.653  56.377  1.00 99.99     0.275 HD
ENDBRANCH 151 152
ENDBRANCH 150 151
ENDBRANCH 149 150
ENDBRANCH 148 149
ENDBRANCH 102 148
ENDBRANCH 100 102
ENDBRANCH  97  98
BRANCH  97 156
ATOM    156  CB  CYS    12      53.266  40.911  49.278  1.00  0.00     0.085 C 
BRANCH 156 157
ATOM    157  SG  CYS    12      52.574  39.417  50.078  1.00  0.00    -0.165 SA
ATOM    158  HG  CYS    12      51.558  39.257  49.237  1.00 99.99     0.102 HD
ENDBRANCH 156 157
ENDBRANCH  97 156
ENDBRANCH  95  97
ENDBRANCH  92  93
BRANCH  92 159
ATOM    159  CB  ARG    11      55.751  36.855  49.898  1.00  0.00     0.034 C 
BRANCH 159 160
ATOM    160  CG  ARG    11      56.937  36.964  50.859  1.00  0.00     0.027 C 
BRANCH 160 161
ATOM    161  CD  ARG    11      56.546  37.774  52.096  1.00  0.00     0.116 C 
BRANCH 161 162
ATOM    162  NE  ARG    11      57.744  38.032  52.912  1.00  0.00    -0.212 N 
ATOM    163  HE  ARG    11      58.349  38.741  52.560  1.00 99.99     0.178 HD
ATOM    164  CZ  ARG    11      58.082  37.412  54.050  1.00  0.00     0.666 C 
ATOM    165  NH1 ARG    11      57.335  36.450  54.580  1.00  0.00    -0.235 N 
ATOM    166  NH2 ARG    11      59.198  37.743  54.682  1.00  0.00    -0.235 N 
ATOM    167 2HH1 ARG    11      56.499  36.172  54.106  1.00 99.99     0.174 HD
ATOM    168 1HH1 ARG    11      57.609  36.004  55.427  1.00 99.99     0.174 HD
ATOM    169 1HH2 ARG    11      59.440  37.272  55.528  1.00 99.99     0.174 HD
ATOM    170 2HH2 ARG    11      59.798  38.451  54.316  1.00 99.99     0.174 HD
ENDBRANCH 161 162
ENDBRANCH 160 161
ENDBRANCH 159 160
ENDBRANCH  92 159
ENDBRANCH  90  92
ENDBRANCH  87  88
BRANCH  87 171
ATOM    171  CB  PHE    10      60.238  36.615  48.909  1.00  0.00     0.056 C 
BRANCH 171 172
ATOM    172  CG  PHE    10      61.664  36.182  49.295  1.00  0.00    -0.044 A 
ATOM    173  CD2 PHE    10      62.762  36.695  48.630  1.00  0.00     0.008 A 
ATOM    174  CE2 PHE    10      64.043  36.308  48.994  1.00  0.00     0.001 A 
ATOM    175  CZ  PHE    10      64.228  35.400  50.038  1.00  0.00     0.000 A 
ATOM    176  CE1 PHE    10      63.113  34.870  50.693  1.00  0.00     0.001 A 
ATOM    177  CD1 PHE    10      61.836  35.269  50.322  1.00  0.00     0.008 A 
ENDBRANCH 171 172
ENDBRANCH  87 171
ENDBRANCH  84  87
ENDBRANCH  74  83
ENDBRANCH  72  74
ENDBRANCH  65  70
ENDBRANCH  63  65
ENDBRANCH  52  61
ENDBRANCH  49  52
ENDBRANCH  47  48
BRANCH  47 178
ATOM    178  CB  ILE     6      60.122  43.669  36.286  1.00  0.00     0.029 C 
ATOM    179  CG2 ILE     6      60.917  44.601  35.358  1.00  0.00     0.002 C 
BRANCH 178 180
ATOM    180  CG1 ILE     6      59.847  42.284  35.669  1.00  0.00     0.002 C 
ATOM    181  CD  ILE     6      58.465  41.703  35.994  1.00  0.00     0.000 C 
ENDBRANCH 178 180
ENDBRANCH  47 178
ENDBRANCH  45  47
ENDBRANCH  42  43
BRANCH  42 182
ATOM    182  CB  TRP     5      62.696  39.973  37.494  1.00  0.00     0.059 C 
BRANCH 182 183
ATOM    183  CG  TRP     5      63.249  38.540  37.487  1.00  0.00    -0.016 A 
ATOM    184  CD1 TRP     5      64.075  37.971  36.610  1.00  0.00     0.097 A 
ATOM    185  NE1 TRP     5      64.489  36.792  37.074  1.00  0.00    -0.365 N 
ATOM    186  CE2 TRP     5      63.920  36.562  38.256  1.00  0.00     0.042 A 
ATOM    187  HE1 TRP     5      65.170  36.209  36.632  1.00 99.99     0.165 HD
ATOM    188  CD2 TRP     5      63.115  37.652  38.541  1.00  0.00    -0.001 A 
ATOM    189  CZ2 TRP     5      64.067  35.547  39.193  1.00  0.00     0.030 A 
ATOM    190  CE3 TRP     5      62.449  37.740  39.755  1.00  0.00     0.014 A 
ATOM    191  CZ3 TRP     5      62.604  36.731  40.701  1.00  0.00     0.001 A 
ATOM    192  CH2 TRP     5      63.411  35.633  40.414  1.00  0.00     0.002 A 
ENDBRANCH 182 183
ENDBRANCH  42 182
ENDBRANCH  39  42
ENDBRANCH  34  38
ENDBRANCH  31  34
ENDBRANCH  17  30
ENDBRANCH  15  17
ENDBRANCH   8  13
ENDBRANCH   5   6
BRANCH   5 193
ATOM    193  CB  ARG     1      70.330  42.001  39.872  1.00  0.00     0.042 C 
BRANCH 193 194
ATOM    194  CG  ARG     1      70.603  42.889  41.102  1.00  0.00     0.027 C 
BRANCH 194 195
ATOM    195  CD  ARG     1      70.386  42.146  42.429  1.00  0.00     0.116 C 
BRANCH 195 196
ATOM    196  NE  ARG     1      69.376  42.826  43.267  1.00  0.00    -0.212 N 
ATOM    197  HE  ARG     1      68.626  43.252  42.764  1.00 99.99     0.178 HD
ATOM    198  CZ  ARG     1      69.381  42.944  44.605  1.00  0.00     0.666 C 
ATOM    199  NH2 ARG     1      68.415  43.602  45.231  1.00  0.00    -0.235 N 
ATOM    200  NH1 ARG     1      70.342  42.423  45.358  1.00  0.00    -0.235 N 
ATOM    201 2HH2 ARG     1      67.671  44.030  44.720  1.00 99.99     0.174 HD
ATOM    202 1HH2 ARG     1      68.436  43.676  46.227  1.00 99.99     0.174 HD
ATOM    203 1HH1 ARG     1      70.316  42.525  46.350  1.00 99.99     0.174 HD
ATOM    204 2HH1 ARG     1      71.089  41.927  44.919  1.00 99.99     0.174 HD
ENDBRANCH 195 196
ENDBRANCH 194 195
ENDBRANCH 193 194
ENDBRANCH   5 193
ENDBRANCH   1   5
TORSDOF 83
ENDMDL
MODEL 9
REMARK VINA RESULT:      -3.2      3.598     11.480
REMARK WARNING: 32 MAX_TORS EXCEEDED!!!
REMARK  83 active torsions:
REMARK  status: ('A' for Active; 'I' for Inactive)
REMARK    1  A    between atoms: N_1  and  CA_2 
REMARK    2  A    between atoms: CA_2  and  C_3 
REMARK    3  A    between atoms: CA_2  and  CB_5 
REMARK       I    between atoms: C_3  and  N_20 
REMARK    4  A    between atoms: CB_5  and  CG_6 
REMARK    5  A    between atoms: CG_6  and  CD_7 
REMARK    6  A    between atoms: CD_7  and  NE_8 
REMARK       I    between atoms: NE_8  and  CZ_9 
REMARK       I    between atoms: CZ_9  and  NH2_11 
REMARK       I    between atoms: CZ_9  and  NH1_10 
REMARK    7  A    between atoms: CA_21  and  C_22 
REMARK       I    between atoms: C_22  and  N_27 
REMARK    8  A    between atoms: N_27  and  CA_28 
REMARK    9  A    between atoms: CA_28  and  CB_31 
REMARK   10  A    between atoms: CA_28  and  C_29 
REMARK       I    between atoms: C_29  and  N_44 
REMARK   11  A    between atoms: CB_31  and  CG_32 
REMARK   12  A    between atoms: CG_32  and  CD_33 
REMARK   13  A    between atoms: CD_33  and  NE_34 
REMARK       I    between atoms: NE_34  and  CZ_35 
REMARK       I    between atoms: CZ_35  and  NH1_36 
REMARK       I    between atoms: CZ_35  and  NH2_37 
REMARK   14  A    between atoms: N_44  and  CA_45 
REMARK   15  A    between atoms: CA_45  and  CB_48 
REMARK   16  A    between atoms: CA_45  and  C_46 
REMARK       I    between atoms: C_46  and  N_52 
REMARK   17  A    between atoms: CB_48  and  SG_49 
REMARK   18  A    between atoms: N_52  and  CA_53 
REMARK   19  A    between atoms: CA_53  and  C_54 
REMARK   20  A    between atoms: CA_53  and  CB_56 
REMARK       I    between atoms: C_54  and  N_68 
REMARK   21  A    between atoms: CB_56  and  CG_57 
REMARK   22  A    between atoms: N_68  and  CA_69 
REMARK   23  A    between atoms: CA_69  and  C_70 
REMARK   24  A    between atoms: CA_69  and  CB_72 
REMARK       I    between atoms: C_70  and  N_77 
REMARK   25  A    between atoms: CB_72  and  CG1_73 
REMARK   26  A    between atoms: N_77  and  CA_78 
REMARK   27  A    between atoms: CA_78  and  CB_81 
REMARK   28  A    between atoms: CA_78  and  C_79 
REMARK       I    between atoms: C_79  and  N_90 
REMARK   29  A    between atoms: CB_81  and  CG_82 
REMARK   30  A    between atoms: CG_82  and  CD_83 
REMARK   31  A    between atoms: CD_83  and  CE_84 
REMARK   32  A    between atoms: CE_84  and  NZ_85 
REMARK   33  A    between atoms: N_90  and  CA_91 
REMARK   34  A    between atoms: CA_91  and  CB_94 
REMARK   35  A    between atoms: CA_91  and  C_92 
REMARK       I    between atoms: C_92  and  N_99 
REMARK   36  A    between atoms: CB_94  and  CG1_95 
REMARK   37  A    between atoms: N_99  and  CA_100 
REMARK   38  A    between atoms: CA_100  and  CB_103 
REMARK   39  A    between atoms: CA_100  and  C_101 
REMARK       I    between atoms: C_101  and  N_112 
REMARK   40  A    between atoms: CB_103  and  CG_104 
REMARK   41  A    between atoms: CG_104  and  CD_105 
REMARK   42  A    between atoms: CD_105  and  CE_106 
REMARK   43  A    between atoms: CE_106  and  NZ_107 
REMARK   44  A    between atoms: N_112  and  CA_113 
REMARK   45  A    between atoms: CA_113  and  C_114 
REMARK   46  A    between atoms: CA_113  and  CB_116 
REMARK       I    between atoms: C_114  and  N_124 
REMARK   47  A    between atoms: CB_116  and  CG_117 
REMARK   48  A    between atoms: N_124  and  CA_125 
REMARK   49  A    between atoms: CA_125  and  C_126 
REMARK   50  A    between atoms: CA_125  and  CB_128 
REMARK       I    between atoms: C_126  and  N_141 
REMARK   51  A    between atoms: CB_128  and  CG_129 
REMARK   52  A    between atoms: CG_129  and  CD_130 
REMARK   53  A    between atoms: CD_130  and  NE_131 
REMARK       I    between atoms: NE_131  and  CZ_132 
REMARK       I    between atoms: CZ_132  and  NH1_133 
REMARK   54  A    between atoms: N_141  and  CA_142 
REMARK   55  A    between atoms: CA_142  and  C_143 
REMARK   56  A    between atoms: CA_142  and  CB_145 
REMARK       I    between atoms: C_143  and  N_149 
REMARK   57  A    between atoms: CB_145  and  SG_146 
REMARK   58  A    between atoms: N_149  and  CA_150 
REMARK   59  A    between atoms: CA_150  and  C_151 
REMARK   60  A    between atoms: CA_150  and  CB_153 
REMARK       I    between atoms: C_151  and  N_162 
REMARK   61  A    between atoms: CB_153  and  CG_154 
REMARK   62  A    between atoms: CG_154  and  CD_155 
REMARK   63  A    between atoms: CD_155  and  CE_156 
REMARK   64  A    between atoms: CE_156  and  NZ_157 
REMARK   65  A    between atoms: N_162  and  CA_163 
REMARK   66  A    between atoms: CA_163  and  C_164 
REMARK   67  A    between atoms: CA_163  and  CB_166 
REMARK       I    between atoms: C_164  and  N_170 
REMARK   68  A    between atoms: CB_166  and  OG_167 
REMARK   69  A    between atoms: N_170  and  CA_171 
REMARK   70  A    between atoms: CA_171  and  CB_174 
REMARK   71  A    between atoms: CA_171  and  C_172 
REMARK       I    between atoms: C_172  and  N_179 
REMARK   72  A    between atoms: CB_174  and  CG_175 
REMARK   73  A    between atoms: N_179  and  CA_180 
REMARK   74  A    between atoms: CA_180  and  C_181 
REMARK   75  A    between atoms: CA_180  and  CB_183 
REMARK       I    between atoms: C_181  and  N_192 
REMARK   76  A    between atoms: CB_183  and  CG_184 
REMARK   77  A    between atoms: CG_184  and  CD_185 
REMARK   78  A    between atoms: CD_185  and  CE_186 
REMARK   79  A    between atoms: CE_186  and  NZ_187 
REMARK   80  A    between atoms: N_192  and  CA_193 
REMARK   81  A    between atoms: CA_193  and  C_194 
REMARK   82  A    between atoms: CA_193  and  CB_196 
REMARK   83  A    between atoms: CB_196  and  CG_197 
ROOT
ATOM      1  N   ARG     1      59.167  44.413  39.284  1.00  0.00    -0.058 N 
ATOM      2  H1  ARG     1      58.393  44.948  38.949  1.00 99.99     0.276 HD
ATOM      3  H2  ARG     1      59.033  44.251  40.247  1.00 99.99     0.276 HD
ATOM      4  H3  ARG     1      59.994  44.948  39.219  1.00 99.99     0.276 HD
ENDROOT
BRANCH   1   5
ATOM      5  CA  ARG     1      59.220  43.145  38.501  1.00  0.00     0.255 C 
BRANCH   5   6
ATOM      6  C   ARG     1      59.768  42.031  39.421  1.00  0.00     0.262 C 
ATOM      7  N   PRO     2      59.444  40.758  39.157  1.00  0.00    -0.312 N 
ATOM      8  CA  PRO     2      60.107  39.634  39.847  1.00  0.00     0.163 C 
ATOM      9  CD  PRO     2      58.397  40.271  38.237  1.00  0.00     0.105 C 
ATOM     10  CB  PRO     2      59.309  38.395  39.439  1.00  0.00     0.034 C 
ATOM     11  CG  PRO     2      58.699  38.778  38.089  1.00  0.00     0.027 C 
ATOM     12  O   ARG     1      60.361  42.348  40.457  1.00  0.00    -0.270 OA
BRANCH   8  13
ATOM     13  C   PRO     2      61.583  39.568  39.423  1.00  0.00     0.251 C 
ATOM     14  O   PRO     2      61.889  39.313  38.260  1.00  0.00    -0.271 OA
ATOM     15  N   ARG     3      62.457  39.973  40.339  1.00  0.00    -0.338 N 
ATOM     16  H   ARG     3      62.167  40.344  41.224  1.00 99.99     0.164 HD
BRANCH  15  17
ATOM     17  CA  ARG     3      63.915  39.941  40.127  1.00  0.00     0.159 C 
BRANCH  17  18
ATOM     18  CB  ARG     3      64.444  41.356  39.837  1.00  0.00     0.034 C 
BRANCH  18  19
ATOM     19  CG  ARG     3      64.752  41.563  38.349  1.00  0.00     0.027 C 
BRANCH  19  20
ATOM     20  CD  ARG     3      63.595  42.204  37.575  1.00  0.00     0.116 C 
BRANCH  20  21
ATOM     21  NE  ARG     3      63.998  43.490  36.980  1.00  0.00    -0.212 N 
ATOM     22  CZ  ARG     3      64.236  43.725  35.686  1.00  0.00     0.666 C 
ATOM     23  NH1 ARG     3      64.145  42.770  34.765  1.00  0.00    -0.235 N 
ATOM     24  NH2 ARG     3      64.527  44.950  35.273  1.00  0.00    -0.235 N 
ATOM     25 1HH1 ARG     3      64.321  42.973  33.807  1.00 99.99     0.174 HD
ATOM     26 2HH1 ARG     3      63.891  41.848  35.053  1.00 99.99     0.174 HD
ATOM     27 1HH2 ARG     3      64.697  45.115  34.304  1.00 99.99     0.174 HD
ATOM     28 2HH2 ARG     3      64.568  45.707  35.923  1.00 99.99     0.174 HD
ATOM     29  HE  ARG     3      64.108  44.241  37.628  1.00 99.99     0.178 HD
ENDBRANCH  20  21
ENDBRANCH  19  20
ENDBRANCH  18  19
ENDBRANCH  17  18
BRANCH  17  30
ATOM     30  C   ARG     3      64.599  39.387  41.377  1.00  0.00     0.251 C 
ATOM     31  N   CYS     4      65.561  40.162  41.873  1.00  0.00    -0.337 N 
ATOM     32  H   CYS     4      65.878  40.972  41.383  1.00 99.99     0.164 HD
ATOM     33  O   ARG     3      64.300  38.279  41.827  1.00  0.00    -0.271 OA
BRANCH  31  34
ATOM     34  CA  CYS     4      66.287  39.883  43.125  1.00  0.00     0.170 C 
BRANCH  34  35
ATOM     35  CB  CYS     4      67.792  40.064  42.883  1.00  0.00     0.085 C 
BRANCH  35  36
ATOM     36  SG  CYS     4      68.236  41.374  41.684  1.00  0.00    -0.165 SA
ATOM     37  HG  CYS     4      69.517  41.033  41.577  1.00 99.99     0.102 HD
ENDBRANCH  35  36
ENDBRANCH  34  35
BRANCH  34  38
ATOM     38  C   CYS     4      65.867  40.884  44.213  1.00  0.00     0.252 C 
ATOM     39  N   TRP     5      66.710  40.995  45.236  1.00  0.00    -0.337 N 
ATOM     40  H   TRP     5      67.482  40.376  45.358  1.00 99.99     0.164 HD
ATOM     41  O   CYS     4      64.810  41.509  44.128  1.00  0.00    -0.271 OA
BRANCH  39  42
ATOM     42  CA  TRP     5      66.547  41.997  46.304  1.00  0.00     0.164 C 
BRANCH  42  43
ATOM     43  C   TRP     5      65.751  41.383  47.452  1.00  0.00     0.251 C 
ATOM     44  O   TRP     5      65.930  41.740  48.620  1.00  0.00    -0.271 OA
ATOM     45  N   ILE     6      64.706  40.661  47.055  1.00  0.00    -0.338 N 
ATOM     46  H   ILE     6      64.505  40.552  46.084  1.00 99.99     0.164 HD
BRANCH  45  47
ATOM     47  CA  ILE     6      63.783  39.973  47.979  1.00  0.00     0.159 C 
BRANCH  47  48
ATOM     48  C   ILE     6      62.787  40.956  48.626  1.00  0.00     0.251 C 
ATOM     49  N   LYS     7      61.613  41.146  48.010  1.00  0.00    -0.338 N 
ATOM     50  H   LYS     7      61.406  40.695  47.144  1.00 99.99     0.164 HD
ATOM     51  O   ILE     6      63.089  41.538  49.668  1.00  0.00    -0.271 OA
BRANCH  49  52
ATOM     52  CA  LYS     7      60.560  42.059  48.498  1.00  0.00     0.159 C 
BRANCH  52  53
ATOM     53  CB  LYS     7      59.964  42.772  47.274  1.00  0.00     0.032 C 
BRANCH  53  54
ATOM     54  CG  LYS     7      59.833  41.867  46.044  1.00  0.00     0.004 C 
BRANCH  54  55
ATOM     55  CD  LYS     7      59.738  42.698  44.765  1.00  0.00     0.032 C 
BRANCH  55  56
ATOM     56  CE  LYS     7      61.046  42.630  43.975  1.00  0.00     0.206 C 
BRANCH  56  57
ATOM     57  NZ  LYS     7      61.056  43.620  42.887  1.00  0.00    -0.064 N 
ATOM     58  HZ3 LYS     7      61.382  44.497  43.239  1.00 99.99     0.275 HD
ATOM     59  HZ2 LYS     7      60.132  43.726  42.525  1.00 99.99     0.275 HD
ATOM     60  HZ1 LYS     7      61.666  43.307  42.159  1.00 99.99     0.275 HD
ENDBRANCH  56  57
ENDBRANCH  55  56
ENDBRANCH  54  55
ENDBRANCH  53  54
ENDBRANCH  52  53
BRANCH  52  61
ATOM     61  C   LYS     7      59.493  41.338  49.359  1.00  0.00     0.251 C 
ATOM     62  O   LYS     7      59.718  40.278  49.946  1.00  0.00    -0.271 OA
ATOM     63  N   ILE     8      58.307  41.941  49.375  1.00  0.00    -0.338 N 
ATOM     64  H   ILE     8      58.201  42.837  48.929  1.00 99.99     0.164 HD
BRANCH  63  65
ATOM     65  CA  ILE     8      57.113  41.523  50.141  1.00  0.00     0.159 C 
BRANCH  65  66
ATOM     66  CB  ILE     8      56.990  42.369  51.438  1.00  0.00     0.029 C 
ATOM     67  CG2 ILE     8      55.528  42.718  51.782  1.00  0.00     0.002 C 
BRANCH  66  68
ATOM     68  CG1 ILE     8      57.743  41.708  52.606  1.00  0.00     0.002 C 
ATOM     69  CD  ILE     8      58.988  42.460  53.097  1.00  0.00     0.000 C 
ENDBRANCH  66  68
ENDBRANCH  65  66
BRANCH  65  70
ATOM     70  C   ILE     8      55.879  41.652  49.222  1.00  0.00     0.251 C 
ATOM     71  O   ILE     8      55.673  42.692  48.600  1.00  0.00    -0.271 OA
ATOM     72  N   LYS     9      55.077  40.591  49.138  1.00  0.00    -0.338 N 
ATOM     73  H   LYS     9      55.265  39.743  49.632  1.00 99.99     0.164 HD
BRANCH  72  74
ATOM     74  CA  LYS     9      53.870  40.571  48.288  1.00  0.00     0.159 C 
BRANCH  74  75
ATOM     75  CB  LYS     9      54.019  39.508  47.183  1.00  0.00     0.032 C 
BRANCH  75  76
ATOM     76  CG  LYS     9      54.731  39.977  45.913  1.00  0.00     0.004 C 
BRANCH  76  77
ATOM     77  CD  LYS     9      55.442  38.780  45.274  1.00  0.00     0.032 C 
BRANCH  77  78
ATOM     78  CE  LYS     9      56.608  39.207  44.379  1.00  0.00     0.206 C 
BRANCH  78  79
ATOM     79  NZ  LYS     9      56.562  40.655  44.134  1.00  0.00    -0.064 N 
ATOM     80  HZ3 LYS     9      57.246  40.899  43.445  1.00 99.99     0.275 HD
ATOM     81  HZ2 LYS     9      56.757  41.146  44.983  1.00 99.99     0.275 HD
ATOM     82  HZ1 LYS     9      55.654  40.911  43.803  1.00 99.99     0.275 HD
ENDBRANCH  78  79
ENDBRANCH  77  78
ENDBRANCH  76  77
ENDBRANCH  75  76
ENDBRANCH  74  75
BRANCH  74  83
ATOM     83  C   LYS     9      52.613  40.281  49.126  1.00  0.00     0.251 C 
ATOM     84  N   PHE    10      51.860  39.253  48.731  1.00  0.00    -0.337 N 
ATOM     85  H   PHE    10      52.144  38.616  48.013  1.00 99.99     0.164 HD
ATOM     86  O   LYS     9      52.321  40.971  50.105  1.00  0.00    -0.271 OA
BRANCH  84  87
ATOM     87  CA  PHE    10      50.603  38.918  49.435  1.00  0.00     0.164 C 
BRANCH  87  88
ATOM     88  C   PHE    10      50.825  38.418  50.870  1.00  0.00     0.251 C 
ATOM     89  O   PHE    10      51.269  37.293  51.102  1.00  0.00    -0.271 OA
ATOM     90  N   ARG    11      50.517  39.304  51.818  1.00  0.00    -0.338 N 
ATOM     91  H   ARG    11      50.169  40.210  51.579  1.00 99.99     0.164 HD
BRANCH  90  92
ATOM     92  CA  ARG    11      50.683  39.067  53.262  1.00  0.00     0.159 C 
BRANCH  92  93
ATOM     93  C   ARG    11      52.061  38.467  53.606  1.00  0.00     0.251 C 
ATOM     94  O   ARG    11      52.174  37.390  54.197  1.00  0.00    -0.271 OA
ATOM     95  N   CYS    12      53.113  39.174  53.197  1.00  0.00    -0.337 N 
ATOM     96  H   CYS    12      53.008  39.938  52.555  1.00 99.99     0.164 HD
BRANCH  95  97
ATOM     97  CA  CYS    12      54.489  38.751  53.501  1.00  0.00     0.170 C 
BRANCH  97  98
ATOM     98  C   CYS    12      55.262  39.738  54.384  1.00  0.00     0.252 C 
ATOM     99  O   CYS    12      54.810  40.849  54.660  1.00  0.00    -0.271 OA
ATOM    100  N   LYS    13      56.354  39.206  54.942  1.00  0.00    -0.337 N 
ATOM    101  H   LYS    13      56.471  38.215  54.939  1.00 99.99     0.164 HD
BRANCH 100 102
ATOM    102  CA  LYS    13      57.356  39.971  55.702  1.00  0.00     0.159 C 
BRANCH 102 103
ATOM    103  C   LYS    13      58.819  39.512  55.555  1.00  0.00     0.251 C 
ATOM    104  O   LYS    13      59.079  38.518  54.879  1.00  0.00    -0.271 OA
ATOM    105  N   SER    14      59.752  40.155  56.263  1.00  0.00    -0.336 N 
ATOM    106  H   SER    14      59.546  40.919  56.874  1.00 99.99     0.164 HD
BRANCH 105 107
ATOM    107  CA  SER    14      61.202  39.911  56.112  1.00  0.00     0.189 C 
BRANCH 107 108
ATOM    108  C   SER    14      62.093  40.297  57.308  1.00  0.00     0.253 C 
ATOM    109  O   SER    14      61.615  40.779  58.337  1.00  0.00    -0.270 OA
ATOM    110  N   LEU    15      63.404  40.141  57.133  1.00  0.00    -0.337 N 
ATOM    111  H   LEU    15      63.779  39.742  56.298  1.00 99.99     0.164 HD
BRANCH 110 112
ATOM    112  CA  LEU    15      64.414  40.657  58.074  1.00  0.00     0.159 C 
BRANCH 112 113
ATOM    113  CB  LEU    15      65.354  39.559  58.592  1.00  0.00     0.032 C 
BRANCH 113 114
ATOM    114  CG  LEU    15      65.014  38.152  58.098  1.00  0.00     0.002 C 
ATOM    115  CD2 LEU    15      64.786  37.186  59.268  1.00  0.00     0.000 C 
ATOM    116  CD1 LEU    15      66.166  37.644  57.231  1.00  0.00     0.000 C 
ENDBRANCH 113 114
ENDBRANCH 112 113
BRANCH 112 117
ATOM    117  C   LEU    15      65.263  41.717  57.385  1.00  0.00     0.251 C 
ATOM    118  N   LYS    16      66.436  41.275  56.947  1.00  0.00    -0.338 N 
ATOM    119  H   LYS    16      66.712  40.318  57.033  1.00 99.99     0.164 HD
ATOM    120  O   LEU    15      64.836  42.861  57.219  1.00  0.00    -0.271 OA
BRANCH 118 121
ATOM    121  CA  LYS    16      67.373  42.122  56.210  1.00  0.00     0.159 C 
BRANCH 121 122
ATOM    122  C   LYS    16      67.826  41.405  54.932  1.00  0.00     0.251 C 
ATOM    123  O   LYS    16      68.785  41.791  54.263  1.00  0.00    -0.271 OA
ATOM    124  N   PHE    17      67.230  40.231  54.800  1.00  0.00    -0.336 N 
ATOM    125  H   PHE    17      66.739  39.822  55.571  1.00 99.99     0.164 HD
BRANCH 124 126
ATOM    126  CA  PHE    17      67.192  39.417  53.579  1.00  0.00     0.172 C 
BRANCH 126 127
ATOM    127  C   PHE    17      65.727  38.949  53.431  1.00  0.00     0.207 C 
ATOM    128  O   PHE    17      65.525  37.860  52.855  1.00 99.99    -0.646 OA
ATOM    129  OXT PHE    17      64.866  39.846  53.609  1.00 99.99    -0.646 OA
ENDBRANCH 126 127
BRANCH 126 130
ATOM    130  CB  PHE    17      68.146  38.253  53.856  1.00  0.00     0.058 C 
BRANCH 130 131
ATOM    131  CG  PHE    17      69.397  38.214  52.972  1.00  0.00    -0.044 A 
ATOM    132  CD1 PHE    17      70.497  37.469  53.368  1.00  0.00     0.008 A 
ATOM    133  CE1 PHE    17      71.534  37.239  52.477  1.00  0.00     0.001 A 
ATOM    134  CZ  PHE    17      71.465  37.743  51.179  1.00  0.00     0.000 A 
ATOM    135  CE2 PHE    17      70.358  38.499  50.788  1.00  0.00     0.001 A 
ATOM    136  CD2 PHE    17      69.328  38.734  51.692  1.00  0.00     0.008 A 
ENDBRANCH 130 131
ENDBRANCH 126 130
ENDBRANCH 124 126
ENDBRANCH 121 122
BRANCH 121 137
ATOM    137  CB  LYS    16      68.579  42.453  57.099  1.00  0.00     0.032 C 
BRANCH 137 138
ATOM    138  CG  LYS    16      68.571  43.928  57.509  1.00  0.00     0.004 C 
BRANCH 138 139
ATOM    139  CD  LYS    16      69.696  44.725  56.854  1.00  0.00     0.032 C 
BRANCH 139 140
ATOM    140  CE  LYS    16      70.402  45.558  57.925  1.00  0.00     0.206 C 
BRANCH 140 141
ATOM    141  NZ  LYS    16      69.674  45.509  59.199  1.00  0.00    -0.064 N 
ATOM    142  HZ2 LYS    16      69.005  44.766  59.169  1.00 99.99     0.275 HD
ATOM    143  HZ1 LYS    16      69.202  46.379  59.341  1.00 99.99     0.275 HD
ATOM    144  HZ3 LYS    16      70.320  45.352  59.946  1.00 99.99     0.275 HD
ENDBRANCH 140 141
ENDBRANCH 139 140
ENDBRANCH 138 139
ENDBRANCH 137 138
ENDBRANCH 121 137
ENDBRANCH 118 121
ENDBRANCH 112 117
ENDBRANCH 110 112
ENDBRANCH 107 108
BRANCH 107 145
ATOM    145  CB  SER    14      61.686  40.612  54.835  1.00  0.00     0.169 C 
BRANCH 145 146
ATOM    146  OG  SER    14      61.882  39.647  53.794  1.00  0.00    -0.380 OA
ATOM    147  HG  SER    14      61.735  38.732  54.176  1.00 99.99     0.211 HD
ENDBRANCH 145 146
ENDBRANCH 107 145
ENDBRANCH 105 107
ENDBRANCH 102 103
BRANCH 102 148
ATOM    148  CB  LYS    13      56.975  40.074  57.193  1.00  0.00     0.032 C 
BRANCH 148 149
ATOM    149  CG  LYS    13      56.255  38.818  57.708  1.00  0.00     0.004 C 
BRANCH 149 150
ATOM    150  CD  LYS    13      57.236  37.827  58.344  1.00  0.00     0.032 C 
BRANCH 150 151
ATOM    151  CE  LYS    13      57.409  36.573  57.489  1.00  0.00     0.206 C 
BRANCH 151 152
ATOM    152  NZ  LYS    13      58.830  36.385  57.158  1.00  0.00    -0.064 N 
ATOM    153  HZ1 LYS    13      58.925  35.655  56.483  1.00 99.99     0.275 HD
ATOM    154  HZ2 LYS    13      59.208  37.237  56.797  1.00 99.99     0.275 HD
ATOM    155  HZ3 LYS    13      59.322  36.130  57.993  1.00 99.99     0.275 HD
ENDBRANCH 151 152
ENDBRANCH 150 151
ENDBRANCH 149 150
ENDBRANCH 148 149
ENDBRANCH 102 148
ENDBRANCH 100 102
ENDBRANCH  97  98
BRANCH  97 156
ATOM    156  CB  CYS    12      55.273  38.492  52.209  1.00  0.00     0.085 C 
BRANCH 156 157
ATOM    157  SG  CYS    12      55.757  36.734  52.050  1.00  0.00    -0.165 SA
ATOM    158  HG  CYS    12      56.534  36.890  50.984  1.00 99.99     0.102 HD
ENDBRANCH 156 157
ENDBRANCH  97 156
ENDBRANCH  95  97
ENDBRANCH  92  93
BRANCH  92 159
ATOM    159  CB  ARG    11      49.534  38.157  53.725  1.00  0.00     0.034 C 
BRANCH 159 160
ATOM    160  CG  ARG    11      48.163  38.655  53.259  1.00  0.00     0.027 C 
BRANCH 160 161
ATOM    161  CD  ARG    11      47.317  39.078  54.461  1.00  0.00     0.116 C 
BRANCH 161 162
ATOM    162  NE  ARG    11      47.512  40.515  54.717  1.00  0.00    -0.212 N 
ATOM    163  HE  ARG    11      47.270  41.114  53.960  1.00 99.99     0.178 HD
ATOM    164  CZ  ARG    11      47.977  41.067  55.845  1.00  0.00     0.666 C 
ATOM    165  NH1 ARG    11      48.330  40.337  56.896  1.00  0.00    -0.235 N 
ATOM    166  NH2 ARG    11      48.107  42.382  55.937  1.00  0.00    -0.235 N 
ATOM    167 2HH1 ARG    11      48.258  39.341  56.839  1.00 99.99     0.174 HD
ATOM    168 1HH1 ARG    11      48.674  40.772  57.723  1.00 99.99     0.174 HD
ATOM    169 1HH2 ARG    11      48.456  42.782  56.782  1.00 99.99     0.174 HD
ATOM    170 2HH2 ARG    11      47.866  42.971  55.169  1.00 99.99     0.174 HD
ENDBRANCH 161 162
ENDBRANCH 160 161
ENDBRANCH 159 160
ENDBRANCH  92 159
ENDBRANCH  90  92
ENDBRANCH  87  88
BRANCH  87 171
ATOM    171  CB  PHE    10      49.726  37.966  48.609  1.00  0.00     0.056 C 
BRANCH 171 172
ATOM    172  CG  PHE    10      48.248  38.378  48.478  1.00  0.00    -0.044 A 
ATOM    173  CD2 PHE    10      47.400  38.321  49.568  1.00  0.00     0.008 A 
ATOM    174  CE2 PHE    10      46.074  38.706  49.442  1.00  0.00     0.001 A 
ATOM    175  CZ  PHE    10      45.591  39.156  48.212  1.00  0.00     0.000 A 
ATOM    176  CE1 PHE    10      46.448  39.193  47.109  1.00  0.00     0.001 A 
ATOM    177  CD1 PHE    10      47.776  38.809  47.250  1.00  0.00     0.008 A 
ENDBRANCH 171 172
ENDBRANCH  87 171
ENDBRANCH  84  87
ENDBRANCH  74  83
ENDBRANCH  72  74
ENDBRANCH  65  70
ENDBRANCH  63  65
ENDBRANCH  52  61
ENDBRANCH  49  52
ENDBRANCH  47  48
BRANCH  47 178
ATOM    178  CB  ILE     6      64.582  39.146  49.013  1.00  0.00     0.029 C 
ATOM    179  CG2 ILE     6      63.603  38.531  50.025  1.00  0.00     0.002 C 
BRANCH 178 180
ATOM    180  CG1 ILE     6      65.503  38.106  48.347  1.00  0.00     0.002 C 
ATOM    181  CD  ILE     6      66.962  38.149  48.820  1.00  0.00     0.000 C 
ENDBRANCH 178 180
ENDBRANCH  47 178
ENDBRANCH  45  47
ENDBRANCH  42  43
BRANCH  42 182
ATOM    182  CB  TRP     5      65.824  43.243  45.774  1.00  0.00     0.059 C 
BRANCH 182 183
ATOM    183  CG  TRP     5      64.879  43.937  46.766  1.00  0.00    -0.016 A 
ATOM    184  CD1 TRP     5      63.578  43.724  46.964  1.00  0.00     0.097 A 
ATOM    185  NE1 TRP     5      63.174  44.367  48.059  1.00  0.00    -0.365 N 
ATOM    186  CE2 TRP     5      64.204  45.029  48.583  1.00  0.00     0.042 A 
ATOM    187  HE1 TRP     5      62.260  44.303  48.456  1.00 99.99     0.165 HD
ATOM    188  CD2 TRP     5      65.301  44.785  47.775  1.00  0.00    -0.001 A 
ATOM    189  CZ2 TRP     5      64.354  45.774  49.746  1.00  0.00     0.030 A 
ATOM    190  CE3 TRP     5      66.552  45.280  48.114  1.00  0.00     0.014 A 
ATOM    191  CZ3 TRP     5      66.709  46.016  49.285  1.00  0.00     0.001 A 
ATOM    192  CH2 TRP     5      65.604  46.264  50.097  1.00  0.00     0.002 A 
ENDBRANCH 182 183
ENDBRANCH  42 182
ENDBRANCH  39  42
ENDBRANCH  34  38
ENDBRANCH  31  34
ENDBRANCH  17  30
ENDBRANCH  15  17
ENDBRANCH   8  13
ENDBRANCH   5   6
BRANCH   5 193
ATOM    193  CB  ARG     1      60.137  43.307  37.270  1.00  0.00     0.042 C 
BRANCH 193 194
ATOM    194  CG  ARG     1      59.467  43.025  35.910  1.00  0.00     0.027 C 
BRANCH 194 195
ATOM    195  CD  ARG     1      60.369  43.391  34.720  1.00  0.00     0.116 C 
BRANCH 195 196
ATOM    196  NE  ARG     1      60.939  44.745  34.875  1.00  0.00    -0.212 N 
ATOM    197  HE  ARG     1      61.561  44.857  35.647  1.00 99.99     0.178 HD
ATOM    198  CZ  ARG     1      60.691  45.820  34.109  1.00  0.00     0.666 C 
ATOM    199  NH2 ARG     1      61.261  46.988  34.374  1.00  0.00    -0.235 N 
ATOM    200  NH1 ARG     1      59.868  45.774  33.068  1.00  0.00    -0.235 N 
ATOM    201 2HH2 ARG     1      61.878  47.093  35.152  1.00 99.99     0.174 HD
ATOM    202 1HH2 ARG     1      61.065  47.775  33.790  1.00 99.99     0.174 HD
ATOM    203 1HH1 ARG     1      59.707  46.589  32.516  1.00 99.99     0.174 HD
ATOM    204 2HH1 ARG     1      59.416  44.912  32.844  1.00 99.99     0.174 HD
ENDBRANCH 195 196
ENDBRANCH 194 195
ENDBRANCH 193 194
ENDBRANCH   5 193
ENDBRANCH   1   5
TORSDOF 83
ENDMDL
