MODEL 1
REMARK VINA RESULT:      -5.3      0.000      0.000
REMARK WARNING: 32 MAX_TORS EXCEEDED!!!
REMARK  33 active torsions:
REMARK  status: ('A' for Active; 'I' for Inactive)
REMARK    1  A    between atoms: N_1  and  CA_2 
REMARK    2  A    between atoms: CA_2  and  C_3 
REMARK       I    between atoms: C_3  and  N_9 
REMARK    3  A    between atoms: N_9  and  CA_10 
REMARK    4  A    between atoms: CA_10  and  C_11 
REMARK    5  A    between atoms: CA_10  and  CB_13 
REMARK       I    between atoms: C_11  and  N_21 
REMARK    6  A    between atoms: CB_13  and  CG_14 
REMARK    7  A    between atoms: N_21  and  CA_22 
REMARK    8  A    between atoms: CA_22  and  C_23 
REMARK       I    between atoms: C_23  and  N_27 
REMARK    9  A    between atoms: N_27  and  CA_28 
REMARK   10  A    between atoms: CA_28  and  C_29 
REMARK   11  A    between atoms: CA_28  and  CB_31 
REMARK       I    between atoms: C_29  and  N_40 
REMARK   12  A    between atoms: CB_31  and  CG_32 
REMARK   13  A    between atoms: CG_32  and  CD_33 
REMARK   14  A    between atoms: CD_33  and  CE_34 
REMARK   15  A    between atoms: CE_34  and  NZ_35 
REMARK   16  A    between atoms: N_40  and  CA_41 
REMARK   17  A    between atoms: CA_41  and  CB_44 
REMARK   18  A    between atoms: CA_41  and  C_42 
REMARK       I    between atoms: C_42  and  N_49 
REMARK   19  A    between atoms: CB_44  and  CG_45 
REMARK   20  A    between atoms: N_49  and  CA_50 
REMARK   21  A    between atoms: CA_50  and  C_51 
REMARK   22  A    between atoms: CA_50  and  CB_53 
REMARK       I    between atoms: C_51  and  N_62 
REMARK   23  A    between atoms: CB_53  and  CG_54 
REMARK   24  A    between atoms: CG_54  and  CD_55 
REMARK   25  A    between atoms: CD_55  and  CE_56 
REMARK   26  A    between atoms: CE_56  and  NZ_57 
REMARK   27  A    between atoms: N_62  and  CA_63 
REMARK   28  A    between atoms: CA_63  and  CB_66 
REMARK   29  A    between atoms: CA_63  and  C_64 
REMARK   30  A    between atoms: CB_66  and  CG_67 
REMARK   31  A    between atoms: CG_67  and  CD_68 
REMARK   32  A    between atoms: CD_68  and  CE_69 
REMARK   33  A    between atoms: CE_69  and  NZ_70 
ROOT
ATOM      1  N   ALA     1      66.263  46.619  50.156  1.00  0.00    -0.058 N 
ATOM      2  H1  ALA     1      66.989  46.018  49.824  1.00 99.99     0.276 HD
ATOM      3  H2  ALA     1      66.323  47.494  49.674  1.00 99.99     0.276 HD
ATOM      4  H3  ALA     1      66.419  46.865  51.110  1.00 99.99     0.276 HD
ENDROOT
BRANCH   1   5
ATOM      5  CA  ALA     1      64.927  45.991  49.970  1.00  0.00     0.255 C 
ATOM      6  CB  ALA     1      63.993  47.044  49.355  1.00  0.00     0.042 C 
BRANCH   5   7
ATOM      7  C   ALA     1      64.844  44.656  49.171  1.00  0.00     0.259 C 
ATOM      8  O   ALA     1      65.843  43.949  49.024  1.00  0.00    -0.271 OA
ATOM      9  N   PHE     2      63.764  44.472  48.402  1.00  0.00    -0.337 N 
ATOM     10  H   PHE     2      63.151  45.226  48.176  1.00 99.99     0.164 HD
BRANCH   9  11
ATOM     11  CA  PHE     2      63.395  43.178  47.772  1.00  0.00     0.164 C 
BRANCH  11  12
ATOM     12  C   PHE     2      63.367  43.151  46.224  1.00  0.00     0.251 C 
ATOM     13  N   ALA     3      62.201  42.837  45.657  1.00  0.00    -0.338 N 
ATOM     14  H   ALA     3      61.436  42.507  46.205  1.00 99.99     0.164 HD
ATOM     15  O   PHE     2      64.314  43.610  45.586  1.00  0.00    -0.271 OA
BRANCH  13  16
ATOM     16  CA  ALA     3      61.949  42.813  44.198  1.00  0.00     0.159 C 
ATOM     17  CB  ALA     3      62.553  41.531  43.622  1.00  0.00     0.034 C 
BRANCH  16  18
ATOM     18  C   ALA     3      60.480  42.954  43.735  1.00  0.00     0.251 C 
ATOM     19  O   ALA     3      59.848  43.970  44.008  1.00  0.00    -0.271 OA
ATOM     20  N   LYS     4      59.964  41.955  43.016  1.00  0.00    -0.338 N 
ATOM     21  H   LYS     4      60.518  41.167  42.740  1.00 99.99     0.164 HD
BRANCH  20  22
ATOM     22  CA  LYS     4      58.558  41.882  42.550  1.00  0.00     0.159 C 
BRANCH  22  23
ATOM     23  C   LYS     4      57.807  40.592  42.951  1.00  0.00     0.251 C 
ATOM     24  N   LEU     5      57.369  40.554  44.206  1.00  0.00    -0.338 N 
ATOM     25  H   LEU     5      57.688  41.224  44.876  1.00 99.99     0.164 HD
ATOM     26  O   LYS     4      57.812  39.605  42.219  1.00  0.00    -0.271 OA
BRANCH  24  27
ATOM     27  CA  LEU     5      56.542  39.474  44.786  1.00  0.00     0.159 C 
BRANCH  27  28
ATOM     28  CB  LEU     5      57.432  38.534  45.608  1.00  0.00     0.032 C 
BRANCH  28  29
ATOM     29  CG  LEU     5      57.587  37.126  45.023  1.00  0.00     0.002 C 
ATOM     30  CD2 LEU     5      58.941  36.956  44.325  1.00  0.00     0.000 C 
ATOM     31  CD1 LEU     5      56.460  36.876  44.020  1.00  0.00     0.000 C 
ENDBRANCH  28  29
ENDBRANCH  27  28
BRANCH  27  32
ATOM     32  C   LEU     5      55.426  40.015  45.700  1.00  0.00     0.251 C 
ATOM     33  O   LEU     5      54.503  40.677  45.231  1.00  0.00    -0.271 OA
ATOM     34  N   LYS     6      55.428  39.535  46.944  1.00  0.00    -0.338 N 
ATOM     35  H   LYS     6      55.958  38.719  47.172  1.00 99.99     0.164 HD
BRANCH  34  36
ATOM     36  CA  LYS     6      54.506  39.977  48.011  1.00  0.00     0.159 C 
BRANCH  36  37
ATOM     37  C   LYS     6      55.027  41.194  48.816  1.00  0.00     0.251 C 
ATOM     38  O   LYS     6      54.303  41.791  49.610  1.00  0.00    -0.271 OA
ATOM     39  N   LYS     7      56.323  41.471  48.691  1.00  0.00    -0.336 N 
ATOM     40  H   LYS     7      56.917  40.914  48.114  1.00 99.99     0.164 HD
BRANCH  39  41
ATOM     41  CA  LYS     7      56.975  42.681  49.244  1.00  0.00     0.168 C 
BRANCH  41  42
ATOM     42  CB  LYS     7      58.408  42.400  49.698  1.00  0.00     0.033 C 
BRANCH  42  43
ATOM     43  CG  LYS     7      58.647  41.523  50.923  1.00  0.00     0.004 C 
BRANCH  43  44
ATOM     44  CD  LYS     7      57.968  42.287  52.059  1.00  0.00     0.032 C 
BRANCH  44  45
ATOM     45  CE  LYS     7      56.918  41.495  52.831  1.00  0.00     0.206 C 
BRANCH  45  46
ATOM     46  NZ  LYS     7      55.594  42.006  52.447  1.00  0.00    -0.064 N 
ATOM     47  HZ1 LYS     7      55.679  42.935  52.092  1.00 99.99     0.275 HD
ATOM     48  HZ2 LYS     7      55.202  41.407  51.746  1.00 99.99     0.275 HD
ATOM     49  HZ3 LYS     7      54.997  42.003  53.249  1.00 99.99     0.275 HD
ENDBRANCH  45  46
ENDBRANCH  44  45
ENDBRANCH  43  44
ENDBRANCH  42  43
ENDBRANCH  41  42
BRANCH  41  50
ATOM     50  C   LYS     7      57.133  43.699  48.107  1.00  0.00     0.206 C 
ATOM     51  OXT LYS     7      58.147  43.528  47.394  1.00 99.99    -0.646 OA
ATOM     52  O   LYS     7      56.266  44.591  47.975  1.00 99.99    -0.646 OA
ENDBRANCH  41  50
ENDBRANCH  39  41
ENDBRANCH  36  37
BRANCH  36  53
ATOM     53  CB  LYS     6      54.240  38.785  48.935  1.00  0.00     0.032 C 
BRANCH  53  54
ATOM     54  CG  LYS     6      52.734  38.633  49.162  1.00  0.00     0.004 C 
BRANCH  54  55
ATOM     55  CD  LYS     6      52.365  38.570  50.642  1.00  0.00     0.032 C 
BRANCH  55  56
ATOM     56  CE  LYS     6      51.358  39.683  50.932  1.00  0.00     0.206 C 
BRANCH  56  57
ATOM     57  NZ  LYS     6      51.652  40.898  50.162  1.00  0.00    -0.064 N 
ATOM     58  HZ3 LYS     6      51.714  40.671  49.191  1.00 99.99     0.275 HD
ATOM     59  HZ2 LYS     6      52.516  41.287  50.478  1.00 99.99     0.275 HD
ATOM     60  HZ1 LYS     6      50.915  41.559  50.303  1.00 99.99     0.275 HD
ENDBRANCH  56  57
ENDBRANCH  55  56
ENDBRANCH  54  55
ENDBRANCH  53  54
ENDBRANCH  36  53
ENDBRANCH  34  36
ENDBRANCH  27  32
ENDBRANCH  24  27
ENDBRANCH  22  23
BRANCH  22  61
ATOM     61  CB  LYS     4      58.513  41.986  41.022  1.00  0.00     0.032 C 
BRANCH  61  62
ATOM     62  CG  LYS     4      59.756  42.597  40.379  1.00  0.00     0.004 C 
BRANCH  62  63
ATOM     63  CD  LYS     4      59.336  43.905  39.704  1.00  0.00     0.032 C 
BRANCH  63  64
ATOM     64  CE  LYS     4      59.393  43.817  38.180  1.00  0.00     0.206 C 
BRANCH  64  65
ATOM     65  NZ  LYS     4      60.717  43.350  37.743  1.00  0.00    -0.064 N 
ATOM     66  HZ3 LYS     4      60.758  42.352  37.818  1.00 99.99     0.275 HD
ATOM     67  HZ2 LYS     4      61.427  43.754  38.319  1.00 99.99     0.275 HD
ATOM     68  HZ1 LYS     4      60.866  43.615  36.790  1.00 99.99     0.275 HD
ENDBRANCH  64  65
ENDBRANCH  63  64
ENDBRANCH  62  63
ENDBRANCH  61  62
ENDBRANCH  22  61
ENDBRANCH  20  22
ENDBRANCH  16  18
ENDBRANCH  13  16
ENDBRANCH  11  12
BRANCH  11  69
ATOM     69  CB  PHE     2      62.068  42.714  48.390  1.00  0.00     0.056 C 
BRANCH  69  70
ATOM     70  CG  PHE     2      62.146  42.409  49.888  1.00  0.00    -0.044 A 
ATOM     71  CD2 PHE     2      62.473  41.126  50.312  1.00  0.00     0.008 A 
ATOM     72  CE2 PHE     2      62.498  40.826  51.668  1.00  0.00     0.001 A 
ATOM     73  CZ  PHE     2      62.185  41.806  52.603  1.00  0.00     0.000 A 
ATOM     74  CE1 PHE     2      61.852  43.086  52.180  1.00  0.00     0.001 A 
ATOM     75  CD1 PHE     2      61.826  43.388  50.824  1.00  0.00     0.008 A 
ENDBRANCH  69  70
ENDBRANCH  11  69
ENDBRANCH   9  11
ENDBRANCH   5   7
ENDBRANCH   1   5
TORSDOF 33
ENDMDL
MODEL 2
REMARK VINA RESULT:      -5.1      2.556      8.228
REMARK WARNING: 32 MAX_TORS EXCEEDED!!!
REMARK  33 active torsions:
REMARK  status: ('A' for Active; 'I' for Inactive)
REMARK    1  A    between atoms: N_1  and  CA_2 
REMARK    2  A    between atoms: CA_2  and  C_3 
REMARK       I    between atoms: C_3  and  N_9 
REMARK    3  A    between atoms: N_9  and  CA_10 
REMARK    4  A    between atoms: CA_10  and  C_11 
REMARK    5  A    between atoms: CA_10  and  CB_13 
REMARK       I    between atoms: C_11  and  N_21 
REMARK    6  A    between atoms: CB_13  and  CG_14 
REMARK    7  A    between atoms: N_21  and  CA_22 
REMARK    8  A    between atoms: CA_22  and  C_23 
REMARK       I    between atoms: C_23  and  N_27 
REMARK    9  A    between atoms: N_27  and  CA_28 
REMARK   10  A    between atoms: CA_28  and  C_29 
REMARK   11  A    between atoms: CA_28  and  CB_31 
REMARK       I    between atoms: C_29  and  N_40 
REMARK   12  A    between atoms: CB_31  and  CG_32 
REMARK   13  A    between atoms: CG_32  and  CD_33 
REMARK   14  A    between atoms: CD_33  and  CE_34 
REMARK   15  A    between atoms: CE_34  and  NZ_35 
REMARK   16  A    between atoms: N_40  and  CA_41 
REMARK   17  A    between atoms: CA_41  and  CB_44 
REMARK   18  A    between atoms: CA_41  and  C_42 
REMARK       I    between atoms: C_42  and  N_49 
REMARK   19  A    between atoms: CB_44  and  CG_45 
REMARK   20  A    between atoms: N_49  and  CA_50 
REMARK   21  A    between atoms: CA_50  and  C_51 
REMARK   22  A    between atoms: CA_50  and  CB_53 
REMARK       I    between atoms: C_51  and  N_62 
REMARK   23  A    between atoms: CB_53  and  CG_54 
REMARK   24  A    between atoms: CG_54  and  CD_55 
REMARK   25  A    between atoms: CD_55  and  CE_56 
REMARK   26  A    between atoms: CE_56  and  NZ_57 
REMARK   27  A    between atoms: N_62  and  CA_63 
REMARK   28  A    between atoms: CA_63  and  CB_66 
REMARK   29  A    between atoms: CA_63  and  C_64 
REMARK   30  A    between atoms: CB_66  and  CG_67 
REMARK   31  A    between atoms: CG_67  and  CD_68 
REMARK   32  A    between atoms: CD_68  and  CE_69 
REMARK   33  A    between atoms: CE_69  and  NZ_70 
ROOT
ATOM      1  N   ALA     1      54.574  38.139  48.560  1.00  0.00    -0.058 N 
ATOM      2  H1  ALA     1      53.589  37.975  48.608  1.00 99.99     0.276 HD
ATOM      3  H2  ALA     1      54.815  38.389  47.622  1.00 99.99     0.276 HD
ATOM      4  H3  ALA     1      55.079  37.293  48.716  1.00 99.99     0.276 HD
ENDROOT
BRANCH   1   5
ATOM      5  CA  ALA     1      54.983  39.198  49.523  1.00  0.00     0.255 C 
ATOM      6  CB  ALA     1      56.471  38.991  49.845  1.00  0.00     0.042 C 
BRANCH   5   7
ATOM      7  C   ALA     1      54.710  40.684  49.145  1.00  0.00     0.259 C 
ATOM      8  O   ALA     1      53.925  40.967  48.236  1.00  0.00    -0.271 OA
ATOM      9  N   PHE     2      55.569  41.599  49.608  1.00  0.00    -0.337 N 
ATOM     10  H   PHE     2      56.453  41.338  49.988  1.00 99.99     0.164 HD
BRANCH   9  11
ATOM     11  CA  PHE     2      55.336  43.066  49.562  1.00  0.00     0.164 C 
BRANCH  11  12
ATOM     12  C   PHE     2      56.209  43.868  48.566  1.00  0.00     0.251 C 
ATOM     13  N   ALA     3      57.171  43.188  47.940  1.00  0.00    -0.338 N 
ATOM     14  H   ALA     3      57.396  42.254  48.204  1.00 99.99     0.164 HD
ATOM     15  O   PHE     2      55.871  45.003  48.230  1.00  0.00    -0.271 OA
BRANCH  13  16
ATOM     16  CA  ALA     3      58.074  43.754  46.910  1.00  0.00     0.159 C 
ATOM     17  CB  ALA     3      59.222  44.478  47.616  1.00  0.00     0.034 C 
BRANCH  16  18
ATOM     18  C   ALA     3      58.642  42.774  45.857  1.00  0.00     0.251 C 
ATOM     19  O   ALA     3      57.957  41.832  45.468  1.00  0.00    -0.271 OA
ATOM     20  N   LYS     4      59.866  43.020  45.386  1.00  0.00    -0.338 N 
ATOM     21  H   LYS     4      60.379  43.835  45.661  1.00 99.99     0.164 HD
BRANCH  20  22
ATOM     22  CA  LYS     4      60.598  42.153  44.431  1.00  0.00     0.159 C 
BRANCH  22  23
ATOM     23  C   LYS     4      61.958  41.627  44.944  1.00  0.00     0.251 C 
ATOM     24  N   LEU     5      62.715  42.522  45.572  1.00  0.00    -0.338 N 
ATOM     25  H   LEU     5      62.496  43.496  45.525  1.00 99.99     0.164 HD
ATOM     26  O   LYS     4      62.379  40.524  44.600  1.00  0.00    -0.271 OA
BRANCH  24  27
ATOM     27  CA  LEU     5      64.005  42.229  46.234  1.00  0.00     0.159 C 
BRANCH  27  28
ATOM     28  CB  LEU     5      65.151  42.822  45.406  1.00  0.00     0.032 C 
BRANCH  28  29
ATOM     29  CG  LEU     5      65.904  41.808  44.536  1.00  0.00     0.002 C 
ATOM     30  CD2 LEU     5      67.416  42.047  44.580  1.00  0.00     0.000 C 
ATOM     31  CD1 LEU     5      65.409  41.925  43.094  1.00  0.00     0.000 C 
ENDBRANCH  28  29
ENDBRANCH  27  28
BRANCH  27  32
ATOM     32  C   LEU     5      64.079  42.811  47.658  1.00  0.00     0.251 C 
ATOM     33  O   LEU     5      65.159  42.906  48.237  1.00  0.00    -0.271 OA
ATOM     34  N   LYS     6      62.958  43.384  48.097  1.00  0.00    -0.338 N 
ATOM     35  H   LYS     6      62.227  43.623  47.459  1.00 99.99     0.164 HD
BRANCH  34  36
ATOM     36  CA  LYS     6      62.777  43.930  49.458  1.00  0.00     0.159 C 
BRANCH  36  37
ATOM     37  C   LYS     6      61.889  43.045  50.368  1.00  0.00     0.251 C 
ATOM     38  O   LYS     6      60.668  43.006  50.225  1.00  0.00    -0.271 OA
ATOM     39  N   LYS     7      62.530  42.246  51.217  1.00  0.00    -0.336 N 
ATOM     40  H   LYS     7      63.527  42.223  51.252  1.00 99.99     0.164 HD
BRANCH  39  41
ATOM     41  CA  LYS     7      61.868  41.450  52.277  1.00  0.00     0.168 C 
BRANCH  41  42
ATOM     42  CB  LYS     7      61.671  39.993  51.859  1.00  0.00     0.033 C 
BRANCH  42  43
ATOM     43  CG  LYS     7      60.348  39.567  51.229  1.00  0.00     0.004 C 
BRANCH  43  44
ATOM     44  CD  LYS     7      60.766  38.846  49.949  1.00  0.00     0.032 C 
BRANCH  44  45
ATOM     45  CE  LYS     7      61.069  39.757  48.764  1.00  0.00     0.206 C 
BRANCH  45  46
ATOM     46  NZ  LYS     7      59.905  40.630  48.557  1.00  0.00    -0.064 N 
ATOM     47  HZ1 LYS     7      60.075  41.246  47.789  1.00 99.99     0.275 HD
ATOM     48  HZ2 LYS     7      59.100  40.065  48.369  1.00 99.99     0.275 HD
ATOM     49  HZ3 LYS     7      59.744  41.162  49.388  1.00 99.99     0.275 HD
ENDBRANCH  45  46
ENDBRANCH  44  45
ENDBRANCH  43  44
ENDBRANCH  42  43
ENDBRANCH  41  42
BRANCH  41  50
ATOM     50  C   LYS     7      62.818  41.372  53.479  1.00  0.00     0.206 C 
ATOM     51  OXT LYS     7      63.757  40.554  53.345  1.00 99.99    -0.646 OA
ATOM     52  O   LYS     7      62.599  42.107  54.467  1.00 99.99    -0.646 OA
ENDBRANCH  41  50
ENDBRANCH  39  41
ENDBRANCH  36  37
BRANCH  36  53
ATOM     53  CB  LYS     6      62.193  45.341  49.332  1.00  0.00     0.032 C 
BRANCH  53  54
ATOM     54  CG  LYS     6      63.304  46.378  49.509  1.00  0.00     0.004 C 
BRANCH  54  55
ATOM     55  CD  LYS     6      64.475  45.853  50.334  1.00  0.00     0.032 C 
BRANCH  55  56
ATOM     56  CE  LYS     6      65.772  46.220  49.614  1.00  0.00     0.206 C 
BRANCH  56  57
ATOM     57  NZ  LYS     6      65.720  45.873  48.188  1.00  0.00    -0.064 N 
ATOM     58  HZ3 LYS     6      65.742  44.878  48.086  1.00 99.99     0.275 HD
ATOM     59  HZ2 LYS     6      66.502  46.281  47.720  1.00 99.99     0.275 HD
ATOM     60  HZ1 LYS     6      64.871  46.229  47.797  1.00 99.99     0.275 HD
ENDBRANCH  56  57
ENDBRANCH  55  56
ENDBRANCH  54  55
ENDBRANCH  53  54
ENDBRANCH  36  53
ENDBRANCH  34  36
ENDBRANCH  27  32
ENDBRANCH  24  27
ENDBRANCH  22  23
BRANCH  22  61
ATOM     61  CB  LYS     4      60.861  42.921  43.132  1.00  0.00     0.032 C 
BRANCH  61  62
ATOM     62  CG  LYS     4      60.543  42.152  41.851  1.00  0.00     0.004 C 
BRANCH  62  63
ATOM     63  CD  LYS     4      59.450  41.133  42.178  1.00  0.00     0.032 C 
BRANCH  63  64
ATOM     64  CE  LYS     4      58.051  41.655  41.854  1.00  0.00     0.206 C 
BRANCH  64  65
ATOM     65  NZ  LYS     4      57.376  40.754  40.907  1.00  0.00    -0.064 N 
ATOM     66  HZ3 LYS     4      56.520  40.430  41.312  1.00 99.99     0.275 HD
ATOM     67  HZ2 LYS     4      57.964  39.971  40.705  1.00 99.99     0.275 HD
ATOM     68  HZ1 LYS     4      57.174  41.250  40.063  1.00 99.99     0.275 HD
ENDBRANCH  64  65
ENDBRANCH  63  64
ENDBRANCH  62  63
ENDBRANCH  61  62
ENDBRANCH  22  61
ENDBRANCH  20  22
ENDBRANCH  16  18
ENDBRANCH  13  16
ENDBRANCH  11  12
BRANCH  11  69
ATOM     69  CB  PHE     2      55.438  43.606  50.996  1.00  0.00     0.056 C 
BRANCH  69  70
ATOM     70  CG  PHE     2      56.210  42.695  51.955  1.00  0.00    -0.044 A 
ATOM     71  CD2 PHE     2      57.585  42.847  52.089  1.00  0.00     0.008 A 
ATOM     72  CE2 PHE     2      58.303  41.994  52.919  1.00  0.00     0.001 A 
ATOM     73  CZ  PHE     2      57.647  40.979  53.606  1.00  0.00     0.000 A 
ATOM     74  CE1 PHE     2      56.275  40.823  53.468  1.00  0.00     0.001 A 
ATOM     75  CD1 PHE     2      55.556  41.675  52.639  1.00  0.00     0.008 A 
ENDBRANCH  69  70
ENDBRANCH  11  69
ENDBRANCH   9  11
ENDBRANCH   5   7
ENDBRANCH   1   5
TORSDOF 33
ENDMDL
MODEL 3
REMARK VINA RESULT:      -5.0      2.794      5.010
REMARK WARNING: 32 MAX_TORS EXCEEDED!!!
REMARK  33 active torsions:
REMARK  status: ('A' for Active; 'I' for Inactive)
REMARK    1  A    between atoms: N_1  and  CA_2 
REMARK    2  A    between atoms: CA_2  and  C_3 
REMARK       I    between atoms: C_3  and  N_9 
REMARK    3  A    between atoms: N_9  and  CA_10 
REMARK    4  A    between atoms: CA_10  and  C_11 
REMARK    5  A    between atoms: CA_10  and  CB_13 
REMARK       I    between atoms: C_11  and  N_21 
REMARK    6  A    between atoms: CB_13  and  CG_14 
REMARK    7  A    between atoms: N_21  and  CA_22 
REMARK    8  A    between atoms: CA_22  and  C_23 
REMARK       I    between atoms: C_23  and  N_27 
REMARK    9  A    between atoms: N_27  and  CA_28 
REMARK   10  A    between atoms: CA_28  and  C_29 
REMARK   11  A    between atoms: CA_28  and  CB_31 
REMARK       I    between atoms: C_29  and  N_40 
REMARK   12  A    between atoms: CB_31  and  CG_32 
REMARK   13  A    between atoms: CG_32  and  CD_33 
REMARK   14  A    between atoms: CD_33  and  CE_34 
REMARK   15  A    between atoms: CE_34  and  NZ_35 
REMARK   16  A    between atoms: N_40  and  CA_41 
REMARK   17  A    between atoms: CA_41  and  CB_44 
REMARK   18  A    between atoms: CA_41  and  C_42 
REMARK       I    between atoms: C_42  and  N_49 
REMARK   19  A    between atoms: CB_44  and  CG_45 
REMARK   20  A    between atoms: N_49  and  CA_50 
REMARK   21  A    between atoms: CA_50  and  C_51 
REMARK   22  A    between atoms: CA_50  and  CB_53 
REMARK       I    between atoms: C_51  and  N_62 
REMARK   23  A    between atoms: CB_53  and  CG_54 
REMARK   24  A    between atoms: CG_54  and  CD_55 
REMARK   25  A    between atoms: CD_55  and  CE_56 
REMARK   26  A    between atoms: CE_56  and  NZ_57 
REMARK   27  A    between atoms: N_62  and  CA_63 
REMARK   28  A    between atoms: CA_63  and  CB_66 
REMARK   29  A    between atoms: CA_63  and  C_64 
REMARK   30  A    between atoms: CB_66  and  CG_67 
REMARK   31  A    between atoms: CG_67  and  CD_68 
REMARK   32  A    between atoms: CD_68  and  CE_69 
REMARK   33  A    between atoms: CE_69  and  NZ_70 
ROOT
ATOM      1  N   ALA     1      69.241  40.529  46.064  1.00  0.00    -0.058 N 
ATOM      2  H1  ALA     1      69.928  39.847  46.316  1.00 99.99     0.276 HD
ATOM      3  H2  ALA     1      68.387  40.059  45.841  1.00 99.99     0.276 HD
ATOM      4  H3  ALA     1      69.491  40.980  45.211  1.00 99.99     0.276 HD
ENDROOT
BRANCH   1   5
ATOM      5  CA  ALA     1      69.045  41.515  47.161  1.00  0.00     0.255 C 
ATOM      6  CB  ALA     1      69.909  42.746  46.847  1.00  0.00     0.042 C 
BRANCH   5   7
ATOM      7  C   ALA     1      67.590  41.946  47.513  1.00  0.00     0.259 C 
ATOM      8  O   ALA     1      67.175  41.870  48.672  1.00  0.00    -0.271 OA
ATOM      9  N   PHE     2      66.734  42.093  46.495  1.00  0.00    -0.337 N 
ATOM     10  H   PHE     2      66.941  41.739  45.586  1.00 99.99     0.164 HD
BRANCH   9  11
ATOM     11  CA  PHE     2      65.396  42.730  46.611  1.00  0.00     0.164 C 
BRANCH  11  12
ATOM     12  C   PHE     2      64.331  42.280  45.581  1.00  0.00     0.251 C 
ATOM     13  N   ALA     3      63.310  41.565  46.057  1.00  0.00    -0.338 N 
ATOM     14  H   ALA     3      63.312  41.228  46.995  1.00 99.99     0.164 HD
ATOM     15  O   PHE     2      64.337  42.755  44.446  1.00  0.00    -0.271 OA
BRANCH  13  16
ATOM     16  CA  ALA     3      62.161  41.089  45.251  1.00  0.00     0.159 C 
ATOM     17  CB  ALA     3      61.870  39.636  45.632  1.00  0.00     0.034 C 
BRANCH  16  18
ATOM     18  C   ALA     3      60.860  41.921  45.323  1.00  0.00     0.251 C 
ATOM     19  O   ALA     3      60.781  42.985  44.715  1.00  0.00    -0.271 OA
ATOM     20  N   LYS     4      59.847  41.418  46.032  1.00  0.00    -0.338 N 
ATOM     21  H   LYS     4      59.905  40.514  46.460  1.00 99.99     0.164 HD
BRANCH  20  22
ATOM     22  CA  LYS     4      58.555  42.105  46.272  1.00  0.00     0.159 C 
BRANCH  22  23
ATOM     23  C   LYS     4      57.838  41.700  47.580  1.00  0.00     0.251 C 
ATOM     24  N   LEU     5      56.700  42.342  47.828  1.00  0.00    -0.338 N 
ATOM     25  H   LEU     5      56.452  43.157  47.306  1.00 99.99     0.164 HD
ATOM     26  O   LYS     4      58.400  40.996  48.416  1.00  0.00    -0.271 OA
BRANCH  24  27
ATOM     27  CA  LEU     5      55.792  42.055  48.960  1.00  0.00     0.159 C 
BRANCH  27  28
ATOM     28  CB  LEU     5      55.664  40.537  49.140  1.00  0.00     0.032 C 
BRANCH  28  29
ATOM     29  CG  LEU     5      54.250  39.985  48.929  1.00  0.00     0.002 C 
ATOM     30  CD2 LEU     5      53.993  39.651  47.457  1.00  0.00     0.000 C 
ATOM     31  CD1 LEU     5      53.233  41.025  49.403  1.00  0.00     0.000 C 
ENDBRANCH  28  29
ENDBRANCH  27  28
BRANCH  27  32
ATOM     32  C   LEU     5      56.293  42.664  50.283  1.00  0.00     0.251 C 
ATOM     33  O   LEU     5      55.871  43.752  50.667  1.00  0.00    -0.271 OA
ATOM     34  N   LYS     6      57.014  41.844  51.048  1.00  0.00    -0.338 N 
ATOM     35  H   LYS     6      57.012  40.860  50.880  1.00 99.99     0.164 HD
BRANCH  34  36
ATOM     36  CA  LYS     6      57.664  42.241  52.315  1.00  0.00     0.159 C 
BRANCH  36  37
ATOM     37  C   LYS     6      59.191  42.467  52.184  1.00  0.00     0.251 C 
ATOM     38  O   LYS     6      59.805  43.163  52.991  1.00  0.00    -0.271 OA
ATOM     39  N   LYS     7      59.810  41.770  51.234  1.00  0.00    -0.336 N 
ATOM     40  H   LYS     7      59.307  41.136  50.649  1.00 99.99     0.164 HD
BRANCH  39  41
ATOM     41  CA  LYS     7      61.225  41.964  50.842  1.00  0.00     0.168 C 
BRANCH  41  42
ATOM     42  CB  LYS     7      62.035  40.674  50.967  1.00  0.00     0.033 C 
BRANCH  42  43
ATOM     43  CG  LYS     7      62.259  40.061  52.345  1.00  0.00     0.004 C 
BRANCH  43  44
ATOM     44  CD  LYS     7      62.805  41.219  53.178  1.00  0.00     0.032 C 
BRANCH  44  45
ATOM     45  CE  LYS     7      62.372  41.224  54.641  1.00  0.00     0.206 C 
BRANCH  45  46
ATOM     46  NZ  LYS     7      60.972  40.781  54.697  1.00  0.00    -0.064 N 
ATOM     47  HZ1 LYS     7      60.368  41.523  54.413  1.00 99.99     0.275 HD
ATOM     48  HZ2 LYS     7      60.852  39.993  54.091  1.00 99.99     0.275 HD
ATOM     49  HZ3 LYS     7      60.753  40.508  55.634  1.00 99.99     0.275 HD
ENDBRANCH  45  46
ENDBRANCH  44  45
ENDBRANCH  43  44
ENDBRANCH  42  43
ENDBRANCH  41  42
BRANCH  41  50
ATOM     50  C   LYS     7      61.265  42.292  49.344  1.00  0.00     0.206 C 
ATOM     51  OXT LYS     7      61.866  41.445  48.644  1.00 99.99    -0.646 OA
ATOM     52  O   LYS     7      60.710  43.338  48.942  1.00 99.99    -0.646 OA
ENDBRANCH  41  50
ENDBRANCH  39  41
ENDBRANCH  36  37
BRANCH  36  53
ATOM     53  CB  LYS     6      57.359  41.168  53.364  1.00  0.00     0.032 C 
BRANCH  53  54
ATOM     54  CG  LYS     6      55.866  40.833  53.344  1.00  0.00     0.004 C 
BRANCH  54  55
ATOM     55  CD  LYS     6      55.329  40.450  54.721  1.00  0.00     0.032 C 
BRANCH  55  56
ATOM     56  CE  LYS     6      55.087  38.940  54.737  1.00  0.00     0.206 C 
BRANCH  56  57
ATOM     57  NZ  LYS     6      56.251  38.208  55.253  1.00  0.00    -0.064 N 
ATOM     58  HZ3 LYS     6      56.564  37.553  54.565  1.00 99.99     0.275 HD
ATOM     59  HZ2 LYS     6      55.993  37.726  56.089  1.00 99.99     0.275 HD
ATOM     60  HZ1 LYS     6      56.983  38.859  55.451  1.00 99.99     0.275 HD
ENDBRANCH  56  57
ENDBRANCH  55  56
ENDBRANCH  54  55
ENDBRANCH  53  54
ENDBRANCH  36  53
ENDBRANCH  34  36
ENDBRANCH  27  32
ENDBRANCH  24  27
ENDBRANCH  22  23
BRANCH  22  61
ATOM     61  CB  LYS     4      57.595  41.820  45.113  1.00  0.00     0.032 C 
BRANCH  61  62
ATOM     62  CG  LYS     4      57.526  40.358  44.675  1.00  0.00     0.004 C 
BRANCH  62  63
ATOM     63  CD  LYS     4      58.006  40.283  43.224  1.00  0.00     0.032 C 
BRANCH  63  64
ATOM     64  CE  LYS     4      58.225  41.666  42.612  1.00  0.00     0.206 C 
BRANCH  64  65
ATOM     65  NZ  LYS     4      57.632  41.730  41.268  1.00  0.00    -0.064 N 
ATOM     66  HZ3 LYS     4      56.811  41.158  41.240  1.00 99.99     0.275 HD
ATOM     67  HZ2 LYS     4      58.289  41.400  40.590  1.00 99.99     0.275 HD
ATOM     68  HZ1 LYS     4      57.381  42.676  41.059  1.00 99.99     0.275 HD
ENDBRANCH  64  65
ENDBRANCH  63  64
ENDBRANCH  62  63
ENDBRANCH  61  62
ENDBRANCH  22  61
ENDBRANCH  20  22
ENDBRANCH  16  18
ENDBRANCH  13  16
ENDBRANCH  11  12
BRANCH  11  69
ATOM     69  CB  PHE     2      65.597  44.252  46.618  1.00  0.00     0.056 C 
BRANCH  69  70
ATOM     70  CG  PHE     2      65.214  44.929  47.938  1.00  0.00    -0.044 A 
ATOM     71  CD2 PHE     2      66.164  45.673  48.629  1.00  0.00     0.008 A 
ATOM     72  CE2 PHE     2      65.841  46.249  49.851  1.00  0.00     0.001 A 
ATOM     73  CZ  PHE     2      64.572  46.073  50.390  1.00  0.00     0.000 A 
ATOM     74  CE1 PHE     2      63.625  45.325  49.703  1.00  0.00     0.001 A 
ATOM     75  CD1 PHE     2      63.946  44.747  48.481  1.00  0.00     0.008 A 
ENDBRANCH  69  70
ENDBRANCH  11  69
ENDBRANCH   9  11
ENDBRANCH   5   7
ENDBRANCH   1   5
TORSDOF 33
ENDMDL
MODEL 4
REMARK VINA RESULT:      -5.0      3.135     10.062
REMARK WARNING: 32 MAX_TORS EXCEEDED!!!
REMARK  33 active torsions:
REMARK  status: ('A' for Active; 'I' for Inactive)
REMARK    1  A    between atoms: N_1  and  CA_2 
REMARK    2  A    between atoms: CA_2  and  C_3 
REMARK       I    between atoms: C_3  and  N_9 
REMARK    3  A    between atoms: N_9  and  CA_10 
REMARK    4  A    between atoms: CA_10  and  C_11 
REMARK    5  A    between atoms: CA_10  and  CB_13 
REMARK       I    between atoms: C_11  and  N_21 
REMARK    6  A    between atoms: CB_13  and  CG_14 
REMARK    7  A    between atoms: N_21  and  CA_22 
REMARK    8  A    between atoms: CA_22  and  C_23 
REMARK       I    between atoms: C_23  and  N_27 
REMARK    9  A    between atoms: N_27  and  CA_28 
REMARK   10  A    between atoms: CA_28  and  C_29 
REMARK   11  A    between atoms: CA_28  and  CB_31 
REMARK       I    between atoms: C_29  and  N_40 
REMARK   12  A    between atoms: CB_31  and  CG_32 
REMARK   13  A    between atoms: CG_32  and  CD_33 
REMARK   14  A    between atoms: CD_33  and  CE_34 
REMARK   15  A    between atoms: CE_34  and  NZ_35 
REMARK   16  A    between atoms: N_40  and  CA_41 
REMARK   17  A    between atoms: CA_41  and  CB_44 
REMARK   18  A    between atoms: CA_41  and  C_42 
REMARK       I    between atoms: C_42  and  N_49 
REMARK   19  A    between atoms: CB_44  and  CG_45 
REMARK   20  A    between atoms: N_49  and  CA_50 
REMARK   21  A    between atoms: CA_50  and  C_51 
REMARK   22  A    between atoms: CA_50  and  CB_53 
REMARK       I    between atoms: C_51  and  N_62 
REMARK   23  A    between atoms: CB_53  and  CG_54 
REMARK   24  A    between atoms: CG_54  and  CD_55 
REMARK   25  A    between atoms: CD_55  and  CE_56 
REMARK   26  A    between atoms: CE_56  and  NZ_57 
REMARK   27  A    between atoms: N_62  and  CA_63 
REMARK   28  A    between atoms: CA_63  and  CB_66 
REMARK   29  A    between atoms: CA_63  and  C_64 
REMARK   30  A    between atoms: CB_66  and  CG_67 
REMARK   31  A    between atoms: CG_67  and  CD_68 
REMARK   32  A    between atoms: CD_68  and  CE_69 
REMARK   33  A    between atoms: CE_69  and  NZ_70 
ROOT
ATOM      1  N   ALA     1      60.519  39.514  48.123  1.00  0.00    -0.058 N 
ATOM      2  H1  ALA     1      60.325  39.709  49.084  1.00 99.99     0.276 HD
ATOM      3  H2  ALA     1      59.720  39.072  47.715  1.00 99.99     0.276 HD
ATOM      4  H3  ALA     1      61.235  38.824  48.043  1.00 99.99     0.276 HD
ENDROOT
BRANCH   1   5
ATOM      5  CA  ALA     1      60.881  40.757  47.391  1.00  0.00     0.255 C 
ATOM      6  CB  ALA     1      60.901  40.431  45.890  1.00  0.00     0.042 C 
BRANCH   5   7
ATOM      7  C   ALA     1      60.041  42.042  47.657  1.00  0.00     0.259 C 
ATOM      8  O   ALA     1      60.038  42.571  48.771  1.00  0.00    -0.271 OA
ATOM      9  N   PHE     2      59.101  42.353  46.756  1.00  0.00    -0.337 N 
ATOM     10  H   PHE     2      58.801  41.696  46.069  1.00 99.99     0.164 HD
BRANCH   9  11
ATOM     11  CA  PHE     2      58.382  43.653  46.711  1.00  0.00     0.164 C 
BRANCH  11  12
ATOM     12  C   PHE     2      57.198  43.816  47.694  1.00  0.00     0.251 C 
ATOM     13  N   ALA     3      56.965  42.792  48.518  1.00  0.00    -0.338 N 
ATOM     14  H   ALA     3      57.443  41.925  48.407  1.00 99.99     0.164 HD
ATOM     15  O   PHE     2      56.665  44.916  47.835  1.00  0.00    -0.271 OA
BRANCH  13  16
ATOM     16  CA  ALA     3      55.921  42.772  49.569  1.00  0.00     0.159 C 
ATOM     17  CB  ALA     3      54.881  41.712  49.199  1.00  0.00     0.034 C 
BRANCH  16  18
ATOM     18  C   ALA     3      56.393  42.558  51.026  1.00  0.00     0.251 C 
ATOM     19  O   ALA     3      55.927  43.250  51.927  1.00  0.00    -0.271 OA
ATOM     20  N   LYS     4      57.282  41.588  51.247  1.00  0.00    -0.338 N 
ATOM     21  H   LYS     4      57.595  40.985  50.510  1.00 99.99     0.164 HD
BRANCH  20  22
ATOM     22  CA  LYS     4      57.900  41.286  52.561  1.00  0.00     0.159 C 
BRANCH  22  23
ATOM     23  C   LYS     4      59.175  42.099  52.880  1.00  0.00     0.251 C 
ATOM     24  N   LEU     5      60.323  41.452  52.702  1.00  0.00    -0.338 N 
ATOM     25  H   LEU     5      60.333  40.461  52.569  1.00 99.99     0.164 HD
ATOM     26  O   LYS     4      59.106  43.183  53.456  1.00  0.00    -0.271 OA
BRANCH  24  27
ATOM     27  CA  LEU     5      61.668  42.051  52.844  1.00  0.00     0.159 C 
BRANCH  27  28
ATOM     28  CB  LEU     5      62.729  40.946  52.784  1.00  0.00     0.032 C 
BRANCH  28  29
ATOM     29  CG  LEU     5      62.182  39.552  52.454  1.00  0.00     0.002 C 
ATOM     30  CD2 LEU     5      62.524  38.542  53.554  1.00  0.00     0.000 C 
ATOM     31  CD1 LEU     5      62.779  39.085  51.126  1.00  0.00     0.000 C 
ENDBRANCH  28  29
ENDBRANCH  27  28
BRANCH  27  32
ATOM     32  C   LEU     5      61.972  43.080  51.738  1.00  0.00     0.251 C 
ATOM     33  O   LEU     5      61.726  44.272  51.911  1.00  0.00    -0.271 OA
ATOM     34  N   LYS     6      62.697  42.620  50.718  1.00  0.00    -0.338 N 
ATOM     35  H   LYS     6      63.196  41.759  50.798  1.00 99.99     0.164 HD
BRANCH  34  36
ATOM     36  CA  LYS     6      63.034  43.405  49.512  1.00  0.00     0.159 C 
BRANCH  36  37
ATOM     37  C   LYS     6      63.813  42.598  48.445  1.00  0.00     0.251 C 
ATOM     38  O   LYS     6      64.211  41.457  48.673  1.00  0.00    -0.271 OA
ATOM     39  N   LYS     7      63.915  43.157  47.242  1.00  0.00    -0.336 N 
ATOM     40  H   LYS     7      63.501  44.045  47.049  1.00 99.99     0.164 HD
BRANCH  39  41
ATOM     41  CA  LYS     7      64.754  42.627  46.142  1.00  0.00     0.168 C 
BRANCH  41  42
ATOM     42  CB  LYS     7      64.019  42.649  44.801  1.00  0.00     0.033 C 
BRANCH  42  43
ATOM     43  CG  LYS     7      64.212  41.494  43.823  1.00  0.00     0.004 C 
BRANCH  43  44
ATOM     44  CD  LYS     7      64.486  42.186  42.488  1.00  0.00     0.032 C 
BRANCH  44  45
ATOM     45  CE  LYS     7      65.775  41.761  41.793  1.00  0.00     0.206 C 
BRANCH  45  46
ATOM     46  NZ  LYS     7      66.877  41.914  42.754  1.00  0.00    -0.064 N 
ATOM     47  HZ1 LYS     7      66.710  42.705  43.340  1.00 99.99     0.275 HD
ATOM     48  HZ2 LYS     7      66.943  41.085  43.312  1.00 99.99     0.275 HD
ATOM     49  HZ3 LYS     7      67.733  42.038  42.253  1.00 99.99     0.275 HD
ENDBRANCH  45  46
ENDBRANCH  44  45
ENDBRANCH  43  44
ENDBRANCH  42  43
ENDBRANCH  41  42
BRANCH  41  50
ATOM     50  C   LYS     7      65.936  43.583  45.939  1.00  0.00     0.206 C 
ATOM     51  OXT LYS     7      66.980  43.036  45.518  1.00 99.99    -0.646 OA
ATOM     52  O   LYS     7      65.777  44.797  46.193  1.00 99.99    -0.646 OA
ENDBRANCH  41  50
ENDBRANCH  39  41
ENDBRANCH  36  37
BRANCH  36  53
ATOM     53  CB  LYS     6      63.828  44.639  49.952  1.00  0.00     0.032 C 
BRANCH  53  54
ATOM     54  CG  LYS     6      63.301  45.879  49.228  1.00  0.00     0.004 C 
BRANCH  54  55
ATOM     55  CD  LYS     6      64.213  47.092  49.397  1.00  0.00     0.032 C 
BRANCH  55  56
ATOM     56  CE  LYS     6      65.663  46.609  49.366  1.00  0.00     0.206 C 
BRANCH  56  57
ATOM     57  NZ  LYS     6      66.589  47.687  48.995  1.00  0.00    -0.064 N 
ATOM     58  HZ3 LYS     6      66.070  48.464  48.637  1.00 99.99     0.275 HD
ATOM     59  HZ2 LYS     6      67.224  47.353  48.301  1.00 99.99     0.275 HD
ATOM     60  HZ1 LYS     6      67.098  47.973  49.807  1.00 99.99     0.275 HD
ENDBRANCH  56  57
ENDBRANCH  55  56
ENDBRANCH  54  55
ENDBRANCH  53  54
ENDBRANCH  36  53
ENDBRANCH  34  36
ENDBRANCH  27  32
ENDBRANCH  24  27
ENDBRANCH  22  23
BRANCH  22  61
ATOM     61  CB  LYS     4      58.270  39.801  52.630  1.00  0.00     0.032 C 
BRANCH  61  62
ATOM     62  CG  LYS     4      57.139  38.836  52.281  1.00  0.00     0.004 C 
BRANCH  62  63
ATOM     63  CD  LYS     4      57.766  37.595  51.643  1.00  0.00     0.032 C 
BRANCH  63  64
ATOM     64  CE  LYS     4      59.145  37.879  51.050  1.00  0.00     0.206 C 
BRANCH  64  65
ATOM     65  NZ  LYS     4      60.000  36.687  51.148  1.00  0.00    -0.064 N 
ATOM     66  HZ3 LYS     4      60.489  36.557  50.285  1.00 99.99     0.275 HD
ATOM     67  HZ2 LYS     4      59.439  35.881  51.334  1.00 99.99     0.275 HD
ATOM     68  HZ1 LYS     4      60.663  36.812  51.886  1.00 99.99     0.275 HD
ENDBRANCH  64  65
ENDBRANCH  63  64
ENDBRANCH  62  63
ENDBRANCH  61  62
ENDBRANCH  22  61
ENDBRANCH  20  22
ENDBRANCH  16  18
ENDBRANCH  13  16
ENDBRANCH  11  12
BRANCH  11  69
ATOM     69  CB  PHE     2      57.975  43.917  45.254  1.00  0.00     0.056 C 
BRANCH  69  70
ATOM     70  CG  PHE     2      58.800  43.143  44.222  1.00  0.00    -0.044 A 
ATOM     71  CD2 PHE     2      58.268  42.002  43.634  1.00  0.00     0.008 A 
ATOM     72  CE2 PHE     2      59.027  41.264  42.733  1.00  0.00     0.001 A 
ATOM     73  CZ  PHE     2      60.324  41.660  42.429  1.00  0.00     0.000 A 
ATOM     74  CE1 PHE     2      60.859  42.797  43.022  1.00  0.00     0.001 A 
ATOM     75  CD1 PHE     2      60.101  43.536  43.922  1.00  0.00     0.008 A 
ENDBRANCH  69  70
ENDBRANCH  11  69
ENDBRANCH   9  11
ENDBRANCH   5   7
ENDBRANCH   1   5
TORSDOF 33
ENDMDL
MODEL 5
REMARK VINA RESULT:      -4.9      3.354     10.480
REMARK WARNING: 32 MAX_TORS EXCEEDED!!!
REMARK  33 active torsions:
REMARK  status: ('A' for Active; 'I' for Inactive)
REMARK    1  A    between atoms: N_1  and  CA_2 
REMARK    2  A    between atoms: CA_2  and  C_3 
REMARK       I    between atoms: C_3  and  N_9 
REMARK    3  A    between atoms: N_9  and  CA_10 
REMARK    4  A    between atoms: CA_10  and  C_11 
REMARK    5  A    between atoms: CA_10  and  CB_13 
REMARK       I    between atoms: C_11  and  N_21 
REMARK    6  A    between atoms: CB_13  and  CG_14 
REMARK    7  A    between atoms: N_21  and  CA_22 
REMARK    8  A    between atoms: CA_22  and  C_23 
REMARK       I    between atoms: C_23  and  N_27 
REMARK    9  A    between atoms: N_27  and  CA_28 
REMARK   10  A    between atoms: CA_28  and  C_29 
REMARK   11  A    between atoms: CA_28  and  CB_31 
REMARK       I    between atoms: C_29  and  N_40 
REMARK   12  A    between atoms: CB_31  and  CG_32 
REMARK   13  A    between atoms: CG_32  and  CD_33 
REMARK   14  A    between atoms: CD_33  and  CE_34 
REMARK   15  A    between atoms: CE_34  and  NZ_35 
REMARK   16  A    between atoms: N_40  and  CA_41 
REMARK   17  A    between atoms: CA_41  and  CB_44 
REMARK   18  A    between atoms: CA_41  and  C_42 
REMARK       I    between atoms: C_42  and  N_49 
REMARK   19  A    between atoms: CB_44  and  CG_45 
REMARK   20  A    between atoms: N_49  and  CA_50 
REMARK   21  A    between atoms: CA_50  and  C_51 
REMARK   22  A    between atoms: CA_50  and  CB_53 
REMARK       I    between atoms: C_51  and  N_62 
REMARK   23  A    between atoms: CB_53  and  CG_54 
REMARK   24  A    between atoms: CG_54  and  CD_55 
REMARK   25  A    between atoms: CD_55  and  CE_56 
REMARK   26  A    between atoms: CE_56  and  NZ_57 
REMARK   27  A    between atoms: N_62  and  CA_63 
REMARK   28  A    between atoms: CA_63  and  CB_66 
REMARK   29  A    between atoms: CA_63  and  C_64 
REMARK   30  A    between atoms: CB_66  and  CG_67 
REMARK   31  A    between atoms: CG_67  and  CD_68 
REMARK   32  A    between atoms: CD_68  and  CE_69 
REMARK   33  A    between atoms: CE_69  and  NZ_70 
ROOT
ATOM      1  N   ALA     1      52.791  38.119  48.906  1.00  0.00    -0.058 N 
ATOM      2  H1  ALA     1      52.755  37.723  49.824  1.00 99.99     0.276 HD
ATOM      3  H2  ALA     1      51.912  37.965  48.454  1.00 99.99     0.276 HD
ATOM      4  H3  ALA     1      53.440  37.624  48.335  1.00 99.99     0.276 HD
ENDROOT
BRANCH   1   5
ATOM      5  CA  ALA     1      53.120  39.569  48.967  1.00  0.00     0.255 C 
ATOM      6  CB  ALA     1      52.090  40.248  49.883  1.00  0.00     0.042 C 
BRANCH   5   7
ATOM      7  C   ALA     1      54.566  39.981  49.376  1.00  0.00     0.259 C 
ATOM      8  O   ALA     1      55.316  39.174  49.930  1.00  0.00    -0.271 OA
ATOM      9  N   PHE     2      54.845  41.289  49.396  1.00  0.00    -0.337 N 
ATOM     10  H   PHE     2      54.122  41.976  49.366  1.00 99.99     0.164 HD
BRANCH   9  11
ATOM     11  CA  PHE     2      56.215  41.852  49.516  1.00  0.00     0.164 C 
BRANCH  11  12
ATOM     12  C   PHE     2      56.724  42.118  50.953  1.00  0.00     0.251 C 
ATOM     13  N   ALA     3      57.513  41.182  51.485  1.00  0.00    -0.338 N 
ATOM     14  H   ALA     3      57.650  40.306  51.030  1.00 99.99     0.164 HD
ATOM     15  O   PHE     2      56.575  43.229  51.461  1.00  0.00    -0.271 OA
BRANCH  13  16
ATOM     16  CA  ALA     3      58.150  41.271  52.820  1.00  0.00     0.159 C 
ATOM     17  CB  ALA     3      58.301  39.856  53.381  1.00  0.00     0.034 C 
BRANCH  16  18
ATOM     18  C   ALA     3      59.502  42.017  52.906  1.00  0.00     0.251 C 
ATOM     19  O   ALA     3      59.521  43.226  53.119  1.00  0.00    -0.271 OA
ATOM     20  N   LYS     4      60.614  41.291  52.774  1.00  0.00    -0.338 N 
ATOM     21  H   LYS     4      60.580  40.294  52.675  1.00 99.99     0.164 HD
BRANCH  20  22
ATOM     22  CA  LYS     4      61.991  41.841  52.756  1.00  0.00     0.159 C 
BRANCH  22  23
ATOM     23  C   LYS     4      62.440  42.421  51.395  1.00  0.00     0.251 C 
ATOM     24  N   LEU     5      62.010  43.650  51.130  1.00  0.00    -0.338 N 
ATOM     25  H   LEU     5      61.290  44.068  51.683  1.00 99.99     0.164 HD
ATOM     26  O   LYS     4      62.974  41.706  50.549  1.00  0.00    -0.271 OA
BRANCH  24  27
ATOM     27  CA  LEU     5      62.391  44.447  49.943  1.00  0.00     0.159 C 
BRANCH  27  28
ATOM     28  CB  LEU     5      63.920  44.475  49.817  1.00  0.00     0.032 C 
BRANCH  28  29
ATOM     29  CG  LEU     5      64.549  45.862  49.992  1.00  0.00     0.002 C 
ATOM     30  CD2 LEU     5      63.687  46.953  49.350  1.00  0.00     0.000 C 
ATOM     31  CD1 LEU     5      65.938  45.863  49.349  1.00  0.00     0.000 C 
ENDBRANCH  28  29
ENDBRANCH  27  28
BRANCH  27  32
ATOM     32  C   LEU     5      61.804  43.874  48.639  1.00  0.00     0.251 C 
ATOM     33  O   LEU     5      60.611  44.010  48.381  1.00  0.00    -0.271 OA
ATOM     34  N   LYS     6      62.702  43.441  47.754  1.00  0.00    -0.338 N 
ATOM     35  H   LYS     6      63.664  43.697  47.840  1.00 99.99     0.164 HD
BRANCH  34  36
ATOM     36  CA  LYS     6      62.364  42.778  46.477  1.00  0.00     0.159 C 
BRANCH  36  37
ATOM     37  C   LYS     6      61.770  41.359  46.653  1.00  0.00     0.251 C 
ATOM     38  O   LYS     6      61.408  40.694  45.684  1.00  0.00    -0.271 OA
ATOM     39  N   LYS     7      61.791  40.861  47.887  1.00  0.00    -0.336 N 
ATOM     40  H   LYS     7      62.178  41.380  48.646  1.00 99.99     0.164 HD
BRANCH  39  41
ATOM     41  CA  LYS     7      61.129  39.599  48.290  1.00  0.00     0.168 C 
BRANCH  41  42
ATOM     42  CB  LYS     7      61.893  38.882  49.403  1.00  0.00     0.033 C 
BRANCH  42  43
ATOM     43  CG  LYS     7      61.921  37.357  49.429  1.00  0.00     0.004 C 
BRANCH  43  44
ATOM     44  CD  LYS     7      61.130  36.997  50.686  1.00  0.00     0.032 C 
BRANCH  44  45
ATOM     45  CE  LYS     7      59.892  36.140  50.446  1.00  0.00     0.206 C 
BRANCH  45  46
ATOM     46  NZ  LYS     7      59.503  36.294  49.037  1.00  0.00    -0.064 N 
ATOM     47  HZ1 LYS     7      60.263  36.033  48.444  1.00 99.99     0.275 HD
ATOM     48  HZ2 LYS     7      58.710  35.713  48.849  1.00 99.99     0.275 HD
ATOM     49  HZ3 LYS     7      59.256  37.248  48.868  1.00 99.99     0.275 HD
ENDBRANCH  45  46
ENDBRANCH  44  45
ENDBRANCH  43  44
ENDBRANCH  42  43
ENDBRANCH  41  42
BRANCH  41  50
ATOM     50  C   LYS     7      59.778  39.952  48.928  1.00  0.00     0.206 C 
ATOM     51  OXT LYS     7      59.801  40.964  49.664  1.00 99.99    -0.646 OA
ATOM     52  O   LYS     7      58.787  39.234  48.671  1.00 99.99    -0.646 OA
ENDBRANCH  41  50
ENDBRANCH  39  41
ENDBRANCH  36  37
BRANCH  36  53
ATOM     53  CB  LYS     6      63.627  42.738  45.611  1.00  0.00     0.032 C 
BRANCH  53  54
ATOM     54  CG  LYS     6      64.868  42.812  46.502  1.00  0.00     0.004 C 
BRANCH  54  55
ATOM     55  CD  LYS     6      65.934  43.756  45.951  1.00  0.00     0.032 C 
BRANCH  55  56
ATOM     56  CE  LYS     6      67.112  42.914  45.459  1.00  0.00     0.206 C 
BRANCH  56  57
ATOM     57  NZ  LYS     6      68.382  43.643  45.561  1.00  0.00    -0.064 N 
ATOM     58  HZ3 LYS     6      68.386  44.399  44.907  1.00 99.99     0.275 HD
ATOM     59  HZ2 LYS     6      69.137  43.019  45.365  1.00 99.99     0.275 HD
ATOM     60  HZ1 LYS     6      68.477  44.005  46.488  1.00 99.99     0.275 HD
ENDBRANCH  56  57
ENDBRANCH  55  56
ENDBRANCH  54  55
ENDBRANCH  53  54
ENDBRANCH  36  53
ENDBRANCH  34  36
ENDBRANCH  27  32
ENDBRANCH  24  27
ENDBRANCH  22  23
BRANCH  22  61
ATOM     61  CB  LYS     4      62.990  40.747  53.144  1.00  0.00     0.032 C 
BRANCH  61  62
ATOM     62  CG  LYS     4      62.378  39.369  53.389  1.00  0.00     0.004 C 
BRANCH  62  63
ATOM     63  CD  LYS     4      62.601  39.015  54.860  1.00  0.00     0.032 C 
BRANCH  63  64
ATOM     64  CE  LYS     4      61.424  39.428  55.743  1.00  0.00     0.206 C 
BRANCH  64  65
ATOM     65  NZ  LYS     4      61.786  40.592  56.566  1.00  0.00    -0.064 N 
ATOM     66  HZ3 LYS     4      62.079  40.280  57.471  1.00 99.99     0.275 HD
ATOM     67  HZ2 LYS     4      60.996  41.197  56.665  1.00 99.99     0.275 HD
ATOM     68  HZ1 LYS     4      62.537  41.088  56.130  1.00 99.99     0.275 HD
ENDBRANCH  64  65
ENDBRANCH  63  64
ENDBRANCH  62  63
ENDBRANCH  61  62
ENDBRANCH  22  61
ENDBRANCH  20  22
ENDBRANCH  16  18
ENDBRANCH  13  16
ENDBRANCH  11  12
BRANCH  11  69
ATOM     69  CB  PHE     2      56.291  43.103  48.627  1.00  0.00     0.056 C 
BRANCH  69  70
ATOM     70  CG  PHE     2      57.073  42.902  47.326  1.00  0.00    -0.044 A 
ATOM     71  CD2 PHE     2      57.189  41.626  46.786  1.00  0.00     0.008 A 
ATOM     72  CE2 PHE     2      57.938  41.424  45.633  1.00  0.00     0.001 A 
ATOM     73  CZ  PHE     2      58.583  42.496  45.026  1.00  0.00     0.000 A 
ATOM     74  CE1 PHE     2      58.472  43.769  45.569  1.00  0.00     0.001 A 
ATOM     75  CD1 PHE     2      57.724  43.973  46.722  1.00  0.00     0.008 A 
ENDBRANCH  69  70
ENDBRANCH  11  69
ENDBRANCH   9  11
ENDBRANCH   5   7
ENDBRANCH   1   5
TORSDOF 33
ENDMDL
MODEL 6
REMARK VINA RESULT:      -4.8      3.253      8.565
REMARK WARNING: 32 MAX_TORS EXCEEDED!!!
REMARK  33 active torsions:
REMARK  status: ('A' for Active; 'I' for Inactive)
REMARK    1  A    between atoms: N_1  and  CA_2 
REMARK    2  A    between atoms: CA_2  and  C_3 
REMARK       I    between atoms: C_3  and  N_9 
REMARK    3  A    between atoms: N_9  and  CA_10 
REMARK    4  A    between atoms: CA_10  and  C_11 
REMARK    5  A    between atoms: CA_10  and  CB_13 
REMARK       I    between atoms: C_11  and  N_21 
REMARK    6  A    between atoms: CB_13  and  CG_14 
REMARK    7  A    between atoms: N_21  and  CA_22 
REMARK    8  A    between atoms: CA_22  and  C_23 
REMARK       I    between atoms: C_23  and  N_27 
REMARK    9  A    between atoms: N_27  and  CA_28 
REMARK   10  A    between atoms: CA_28  and  C_29 
REMARK   11  A    between atoms: CA_28  and  CB_31 
REMARK       I    between atoms: C_29  and  N_40 
REMARK   12  A    between atoms: CB_31  and  CG_32 
REMARK   13  A    between atoms: CG_32  and  CD_33 
REMARK   14  A    between atoms: CD_33  and  CE_34 
REMARK   15  A    between atoms: CE_34  and  NZ_35 
REMARK   16  A    between atoms: N_40  and  CA_41 
REMARK   17  A    between atoms: CA_41  and  CB_44 
REMARK   18  A    between atoms: CA_41  and  C_42 
REMARK       I    between atoms: C_42  and  N_49 
REMARK   19  A    between atoms: CB_44  and  CG_45 
REMARK   20  A    between atoms: N_49  and  CA_50 
REMARK   21  A    between atoms: CA_50  and  C_51 
REMARK   22  A    between atoms: CA_50  and  CB_53 
REMARK       I    between atoms: C_51  and  N_62 
REMARK   23  A    between atoms: CB_53  and  CG_54 
REMARK   24  A    between atoms: CG_54  and  CD_55 
REMARK   25  A    between atoms: CD_55  and  CE_56 
REMARK   26  A    between atoms: CE_56  and  NZ_57 
REMARK   27  A    between atoms: N_62  and  CA_63 
REMARK   28  A    between atoms: CA_63  and  CB_66 
REMARK   29  A    between atoms: CA_63  and  C_64 
REMARK   30  A    between atoms: CB_66  and  CG_67 
REMARK   31  A    between atoms: CG_67  and  CD_68 
REMARK   32  A    between atoms: CD_68  and  CE_69 
REMARK   33  A    between atoms: CE_69  and  NZ_70 
ROOT
ATOM      1  N   ALA     1      57.738  41.752  41.931  1.00  0.00    -0.058 N 
ATOM      2  H1  ALA     1      58.309  42.462  41.520  1.00 99.99     0.276 HD
ATOM      3  H2  ALA     1      57.971  40.871  41.518  1.00 99.99     0.276 HD
ATOM      4  H3  ALA     1      56.781  41.883  41.683  1.00 99.99     0.276 HD
ENDROOT
BRANCH   1   5
ATOM      5  CA  ALA     1      57.915  41.719  43.408  1.00  0.00     0.255 C 
ATOM      6  CB  ALA     1      58.117  40.254  43.826  1.00  0.00     0.042 C 
BRANCH   5   7
ATOM      7  C   ALA     1      59.016  42.622  44.040  1.00  0.00     0.259 C 
ATOM      8  O   ALA     1      59.363  43.669  43.488  1.00  0.00    -0.271 OA
ATOM      9  N   PHE     2      59.772  42.079  45.001  1.00  0.00    -0.337 N 
ATOM     10  H   PHE     2      59.786  41.094  45.158  1.00 99.99     0.164 HD
BRANCH   9  11
ATOM     11  CA  PHE     2      60.691  42.849  45.880  1.00  0.00     0.164 C 
BRANCH  11  12
ATOM     12  C   PHE     2      62.205  42.673  45.612  1.00  0.00     0.251 C 
ATOM     13  N   ALA     3      62.550  41.683  44.786  1.00  0.00    -0.338 N 
ATOM     14  H   ALA     3      61.877  41.017  44.473  1.00 99.99     0.164 HD
ATOM     15  O   PHE     2      62.997  43.541  45.976  1.00  0.00    -0.271 OA
BRANCH  13  16
ATOM     16  CA  ALA     3      63.936  41.384  44.355  1.00  0.00     0.159 C 
ATOM     17  CB  ALA     3      64.339  42.396  43.281  1.00  0.00     0.034 C 
BRANCH  16  18
ATOM     18  C   ALA     3      65.019  41.331  45.458  1.00  0.00     0.251 C 
ATOM     19  O   ALA     3      65.175  40.303  46.111  1.00  0.00    -0.271 OA
ATOM     20  N   LYS     4      65.772  42.418  45.632  1.00  0.00    -0.338 N 
ATOM     21  H   LYS     4      65.679  43.221  45.040  1.00 99.99     0.164 HD
BRANCH  20  22
ATOM     22  CA  LYS     4      66.805  42.575  46.684  1.00  0.00     0.159 C 
BRANCH  22  23
ATOM     23  C   LYS     4      66.271  43.056  48.052  1.00  0.00     0.251 C 
ATOM     24  N   LEU     5      64.956  43.250  48.115  1.00  0.00    -0.338 N 
ATOM     25  H   LEU     5      64.406  43.276  47.280  1.00 99.99     0.164 HD
ATOM     26  O   LYS     4      67.040  43.429  48.936  1.00  0.00    -0.271 OA
BRANCH  24  27
ATOM     27  CA  LEU     5      64.207  43.610  49.338  1.00  0.00     0.159 C 
BRANCH  27  28
ATOM     28  CB  LEU     5      63.281  44.795  49.040  1.00  0.00     0.032 C 
BRANCH  28  29
ATOM     29  CG  LEU     5      63.637  46.088  49.783  1.00  0.00     0.002 C 
ATOM     30  CD2 LEU     5      65.144  46.192  50.033  1.00  0.00     0.000 C 
ATOM     31  CD1 LEU     5      62.893  46.114  51.120  1.00  0.00     0.000 C 
ENDBRANCH  28  29
ENDBRANCH  27  28
BRANCH  27  32
ATOM     32  C   LEU     5      63.352  42.442  49.867  1.00  0.00     0.251 C 
ATOM     33  O   LEU     5      63.052  41.506  49.130  1.00  0.00    -0.271 OA
ATOM     34  N   LYS     6      63.168  42.426  51.187  1.00  0.00    -0.338 N 
ATOM     35  H   LYS     6      63.741  42.983  51.786  1.00 99.99     0.164 HD
BRANCH  34  36
ATOM     36  CA  LYS     6      62.316  41.451  51.899  1.00  0.00     0.159 C 
BRANCH  36  37
ATOM     37  C   LYS     6      60.984  42.052  52.414  1.00  0.00     0.251 C 
ATOM     38  O   LYS     6      60.772  43.263  52.372  1.00  0.00    -0.271 OA
ATOM     39  N   LYS     7      60.049  41.181  52.783  1.00  0.00    -0.336 N 
ATOM     40  H   LYS     7      60.206  40.197  52.719  1.00 99.99     0.164 HD
BRANCH  39  41
ATOM     41  CA  LYS     7      58.780  41.550  53.451  1.00  0.00     0.168 C 
BRANCH  41  42
ATOM     42  CB  LYS     7      57.568  41.319  52.547  1.00  0.00     0.033 C 
BRANCH  42  43
ATOM     43  CG  LYS     7      57.589  40.165  51.550  1.00  0.00     0.004 C 
BRANCH  43  44
ATOM     44  CD  LYS     7      56.189  39.560  51.659  1.00  0.00     0.032 C 
BRANCH  44  45
ATOM     45  CE  LYS     7      55.113  40.512  52.172  1.00  0.00     0.206 C 
BRANCH  45  46
ATOM     46  NZ  LYS     7      54.297  40.930  51.023  1.00  0.00    -0.064 N 
ATOM     47  HZ1 LYS     7      54.579  41.837  50.717  1.00 99.99     0.275 HD
ATOM     48  HZ2 LYS     7      54.413  40.269  50.280  1.00 99.99     0.275 HD
ATOM     49  HZ3 LYS     7      53.335  40.949  51.295  1.00 99.99     0.275 HD
ENDBRANCH  45  46
ENDBRANCH  44  45
ENDBRANCH  43  44
ENDBRANCH  42  43
ENDBRANCH  41  42
BRANCH  41  50
ATOM     50  C   LYS     7      58.562  40.588  54.626  1.00  0.00     0.206 C 
ATOM     51  OXT LYS     7      57.389  40.560  55.063  1.00 99.99    -0.646 OA
ATOM     52  O   LYS     7      59.533  39.920  55.044  1.00 99.99    -0.646 OA
ENDBRANCH  41  50
ENDBRANCH  39  41
ENDBRANCH  36  37
BRANCH  36  53
ATOM     53  CB  LYS     6      63.130  40.859  53.054  1.00  0.00     0.032 C 
BRANCH  53  54
ATOM     54  CG  LYS     6      63.269  39.347  52.867  1.00  0.00     0.004 C 
BRANCH  54  55
ATOM     55  CD  LYS     6      64.551  38.793  53.483  1.00  0.00     0.032 C 
BRANCH  55  56
ATOM     56  CE  LYS     6      65.698  39.032  52.501  1.00  0.00     0.206 C 
BRANCH  56  57
ATOM     57  NZ  LYS     6      66.766  39.844  53.098  1.00  0.00    -0.064 N 
ATOM     58  HZ3 LYS     6      67.419  40.109  52.389  1.00 99.99     0.275 HD
ATOM     59  HZ2 LYS     6      67.228  39.311  53.805  1.00 99.99     0.275 HD
ATOM     60  HZ1 LYS     6      66.364  40.664  53.503  1.00 99.99     0.275 HD
ENDBRANCH  56  57
ENDBRANCH  55  56
ENDBRANCH  54  55
ENDBRANCH  53  54
ENDBRANCH  36  53
ENDBRANCH  34  36
ENDBRANCH  27  32
ENDBRANCH  24  27
ENDBRANCH  22  23
BRANCH  22  61
ATOM     61  CB  LYS     4      67.864  43.582  46.223  1.00  0.00     0.032 C 
BRANCH  61  62
ATOM     62  CG  LYS     4      69.311  43.140  46.433  1.00  0.00     0.004 C 
BRANCH  62  63
ATOM     63  CD  LYS     4      70.001  43.141  45.067  1.00  0.00     0.032 C 
BRANCH  63  64
ATOM     64  CE  LYS     4      69.347  42.171  44.084  1.00  0.00     0.206 C 
BRANCH  64  65
ATOM     65  NZ  LYS     4      69.300  42.761  42.738  1.00  0.00    -0.064 N 
ATOM     66  HZ3 LYS     4      69.597  42.081  42.067  1.00 99.99     0.275 HD
ATOM     67  HZ2 LYS     4      69.905  43.555  42.694  1.00 99.99     0.275 HD
ATOM     68  HZ1 LYS     4      68.362  43.042  42.530  1.00 99.99     0.275 HD
ENDBRANCH  64  65
ENDBRANCH  63  64
ENDBRANCH  62  63
ENDBRANCH  61  62
ENDBRANCH  22  61
ENDBRANCH  20  22
ENDBRANCH  16  18
ENDBRANCH  13  16
ENDBRANCH  11  12
BRANCH  11  69
ATOM     69  CB  PHE     2      60.314  42.545  47.338  1.00  0.00     0.056 C 
BRANCH  69  70
ATOM     70  CG  PHE     2      58.843  42.805  47.672  1.00  0.00    -0.044 A 
ATOM     71  CD2 PHE     2      58.309  44.074  47.479  1.00  0.00     0.008 A 
ATOM     72  CE2 PHE     2      56.988  44.333  47.826  1.00  0.00     0.001 A 
ATOM     73  CZ  PHE     2      56.204  43.327  48.378  1.00  0.00     0.000 A 
ATOM     74  CE1 PHE     2      56.739  42.062  48.577  1.00  0.00     0.001 A 
ATOM     75  CD1 PHE     2      58.059  41.800  48.231  1.00  0.00     0.008 A 
ENDBRANCH  69  70
ENDBRANCH  11  69
ENDBRANCH   9  11
ENDBRANCH   5   7
ENDBRANCH   1   5
TORSDOF 33
ENDMDL
MODEL 7
REMARK VINA RESULT:      -4.8      3.781      7.675
REMARK WARNING: 32 MAX_TORS EXCEEDED!!!
REMARK  33 active torsions:
REMARK  status: ('A' for Active; 'I' for Inactive)
REMARK    1  A    between atoms: N_1  and  CA_2 
REMARK    2  A    between atoms: CA_2  and  C_3 
REMARK       I    between atoms: C_3  and  N_9 
REMARK    3  A    between atoms: N_9  and  CA_10 
REMARK    4  A    between atoms: CA_10  and  C_11 
REMARK    5  A    between atoms: CA_10  and  CB_13 
REMARK       I    between atoms: C_11  and  N_21 
REMARK    6  A    between atoms: CB_13  and  CG_14 
REMARK    7  A    between atoms: N_21  and  CA_22 
REMARK    8  A    between atoms: CA_22  and  C_23 
REMARK       I    between atoms: C_23  and  N_27 
REMARK    9  A    between atoms: N_27  and  CA_28 
REMARK   10  A    between atoms: CA_28  and  C_29 
REMARK   11  A    between atoms: CA_28  and  CB_31 
REMARK       I    between atoms: C_29  and  N_40 
REMARK   12  A    between atoms: CB_31  and  CG_32 
REMARK   13  A    between atoms: CG_32  and  CD_33 
REMARK   14  A    between atoms: CD_33  and  CE_34 
REMARK   15  A    between atoms: CE_34  and  NZ_35 
REMARK   16  A    between atoms: N_40  and  CA_41 
REMARK   17  A    between atoms: CA_41  and  CB_44 
REMARK   18  A    between atoms: CA_41  and  C_42 
REMARK       I    between atoms: C_42  and  N_49 
REMARK   19  A    between atoms: CB_44  and  CG_45 
REMARK   20  A    between atoms: N_49  and  CA_50 
REMARK   21  A    between atoms: CA_50  and  C_51 
REMARK   22  A    between atoms: CA_50  and  CB_53 
REMARK       I    between atoms: C_51  and  N_62 
REMARK   23  A    between atoms: CB_53  and  CG_54 
REMARK   24  A    between atoms: CG_54  and  CD_55 
REMARK   25  A    between atoms: CD_55  and  CE_56 
REMARK   26  A    between atoms: CE_56  and  NZ_57 
REMARK   27  A    between atoms: N_62  and  CA_63 
REMARK   28  A    between atoms: CA_63  and  CB_66 
REMARK   29  A    between atoms: CA_63  and  C_64 
REMARK   30  A    between atoms: CB_66  and  CG_67 
REMARK   31  A    between atoms: CG_67  and  CD_68 
REMARK   32  A    between atoms: CD_68  and  CE_69 
REMARK   33  A    between atoms: CE_69  and  NZ_70 
ROOT
ATOM      1  N   ALA     1      65.449  36.428  51.229  1.00  0.00    -0.058 N 
ATOM      2  H1  ALA     1      64.960  35.969  51.970  1.00 99.99     0.276 HD
ATOM      3  H2  ALA     1      65.225  35.975  50.365  1.00 99.99     0.276 HD
ATOM      4  H3  ALA     1      66.432  36.290  51.319  1.00 99.99     0.276 HD
ENDROOT
BRANCH   1   5
ATOM      5  CA  ALA     1      65.107  37.875  51.183  1.00  0.00     0.255 C 
ATOM      6  CB  ALA     1      66.291  38.657  51.772  1.00  0.00     0.042 C 
BRANCH   5   7
ATOM      7  C   ALA     1      64.675  38.489  49.818  1.00  0.00     0.259 C 
ATOM      8  O   ALA     1      64.416  37.761  48.856  1.00  0.00    -0.271 OA
ATOM      9  N   PHE     2      64.900  39.796  49.638  1.00  0.00    -0.337 N 
ATOM     10  H   PHE     2      65.503  40.308  50.245  1.00 99.99     0.164 HD
BRANCH   9  11
ATOM     11  CA  PHE     2      64.339  40.596  48.518  1.00  0.00     0.164 C 
BRANCH  11  12
ATOM     12  C   PHE     2      62.805  40.519  48.321  1.00  0.00     0.251 C 
ATOM     13  N   ALA     3      62.338  39.420  47.725  1.00  0.00    -0.338 N 
ATOM     14  H   ALA     3      62.958  38.757  47.312  1.00 99.99     0.164 HD
ATOM     15  O   PHE     2      62.073  41.330  48.886  1.00  0.00    -0.271 OA
BRANCH  13  16
ATOM     16  CA  ALA     3      60.905  39.127  47.495  1.00  0.00     0.159 C 
ATOM     17  CB  ALA     3      60.343  38.444  48.744  1.00  0.00     0.034 C 
BRANCH  16  18
ATOM     18  C   ALA     3      59.999  40.314  47.095  1.00  0.00     0.251 C 
ATOM     19  O   ALA     3      60.150  40.858  46.005  1.00  0.00    -0.271 OA
ATOM     20  N   LYS     4      59.051  40.683  47.960  1.00  0.00    -0.338 N 
ATOM     21  H   LYS     4      58.896  40.180  48.813  1.00 99.99     0.164 HD
BRANCH  20  22
ATOM     22  CA  LYS     4      58.142  41.840  47.780  1.00  0.00     0.159 C 
BRANCH  22  23
ATOM     23  C   LYS     4      57.631  42.474  49.094  1.00  0.00     0.251 C 
ATOM     24  N   LEU     5      57.937  41.810  50.205  1.00  0.00    -0.338 N 
ATOM     25  H   LEU     5      58.290  40.875  50.157  1.00 99.99     0.164 HD
ATOM     26  O   LYS     4      56.825  43.403  49.076  1.00  0.00    -0.271 OA
BRANCH  24  27
ATOM     27  CA  LEU     5      57.646  42.271  51.579  1.00  0.00     0.159 C 
BRANCH  27  28
ATOM     28  CB  LEU     5      56.680  41.290  52.254  1.00  0.00     0.032 C 
BRANCH  28  29
ATOM     29  CG  LEU     5      56.938  39.814  51.929  1.00  0.00     0.002 C 
ATOM     30  CD2 LEU     5      55.720  39.166  51.263  1.00  0.00     0.000 C 
ATOM     31  CD1 LEU     5      57.269  39.070  53.224  1.00  0.00     0.000 C 
ENDBRANCH  28  29
ENDBRANCH  27  28
BRANCH  27  32
ATOM     32  C   LEU     5      58.916  42.378  52.444  1.00  0.00     0.251 C 
ATOM     33  O   LEU     5      58.837  42.386  53.670  1.00  0.00    -0.271 OA
ATOM     34  N   LYS     6      60.066  42.240  51.784  1.00  0.00    -0.338 N 
ATOM     35  H   LYS     6      60.078  41.858  50.861  1.00 99.99     0.164 HD
BRANCH  34  36
ATOM     36  CA  LYS     6      61.403  42.390  52.395  1.00  0.00     0.159 C 
BRANCH  36  37
ATOM     37  C   LYS     6      62.181  43.630  51.888  1.00  0.00     0.251 C 
ATOM     38  O   LYS     6      62.138  44.700  52.492  1.00  0.00    -0.271 OA
ATOM     39  N   LYS     7      62.985  43.435  50.846  1.00  0.00    -0.336 N 
ATOM     40  H   LYS     7      63.078  42.533  50.428  1.00 99.99     0.164 HD
BRANCH  39  41
ATOM     41  CA  LYS     7      63.683  44.518  50.115  1.00  0.00     0.168 C 
BRANCH  41  42
ATOM     42  CB  LYS     7      64.610  43.970  49.029  1.00  0.00     0.033 C 
BRANCH  42  43
ATOM     43  CG  LYS     7      66.113  44.202  49.142  1.00  0.00     0.004 C 
BRANCH  43  44
ATOM     44  CD  LYS     7      66.328  45.551  48.457  1.00  0.00     0.032 C 
BRANCH  44  45
ATOM     45  CE  LYS     7      66.490  46.737  49.403  1.00  0.00     0.206 C 
BRANCH  45  46
ATOM     46  NZ  LYS     7      65.480  47.742  49.043  1.00  0.00    -0.064 N 
ATOM     47  HZ1 LYS     7      64.654  47.290  48.711  1.00 99.99     0.275 HD
ATOM     48  HZ2 LYS     7      65.265  48.294  49.850  1.00 99.99     0.275 HD
ATOM     49  HZ3 LYS     7      65.850  48.336  48.330  1.00 99.99     0.275 HD
ENDBRANCH  45  46
ENDBRANCH  44  45
ENDBRANCH  43  44
ENDBRANCH  42  43
ENDBRANCH  41  42
BRANCH  41  50
ATOM     50  C   LYS     7      62.633  45.325  49.341  1.00  0.00     0.206 C 
ATOM     51  OXT LYS     7      62.770  46.567  49.421  1.00 99.99    -0.646 OA
ATOM     52  O   LYS     7      61.751  44.709  48.703  1.00 99.99    -0.646 OA
ENDBRANCH  41  50
ENDBRANCH  39  41
ENDBRANCH  36  37
BRANCH  36  53
ATOM     53  CB  LYS     6      62.195  41.105  52.133  1.00  0.00     0.032 C 
BRANCH  53  54
ATOM     54  CG  LYS     6      63.081  40.787  53.339  1.00  0.00     0.004 C 
BRANCH  54  55
ATOM     55  CD  LYS     6      62.331  40.890  54.665  1.00  0.00     0.032 C 
BRANCH  55  56
ATOM     56  CE  LYS     6      61.223  39.837  54.671  1.00  0.00     0.206 C 
BRANCH  56  57
ATOM     57  NZ  LYS     6      60.050  40.285  55.433  1.00  0.00    -0.064 N 
ATOM     58  HZ3 LYS     6      59.501  39.493  55.696  1.00 99.99     0.275 HD
ATOM     59  HZ2 LYS     6      59.507  40.905  54.868  1.00 99.99     0.275 HD
ATOM     60  HZ1 LYS     6      60.359  40.764  56.254  1.00 99.99     0.275 HD
ENDBRANCH  56  57
ENDBRANCH  55  56
ENDBRANCH  54  55
ENDBRANCH  53  54
ENDBRANCH  36  53
ENDBRANCH  34  36
ENDBRANCH  27  32
ENDBRANCH  24  27
ENDBRANCH  22  23
BRANCH  22  61
ATOM     61  CB  LYS     4      56.916  41.413  46.967  1.00  0.00     0.032 C 
BRANCH  61  62
ATOM     62  CG  LYS     4      56.218  40.149  47.465  1.00  0.00     0.004 C 
BRANCH  62  63
ATOM     63  CD  LYS     4      54.885  40.030  46.724  1.00  0.00     0.032 C 
BRANCH  63  64
ATOM     64  CE  LYS     4      55.023  40.311  45.228  1.00  0.00     0.206 C 
BRANCH  64  65
ATOM     65  NZ  LYS     4      54.861  39.069  44.457  1.00  0.00    -0.064 N 
ATOM     66  HZ3 LYS     4      54.775  38.296  45.088  1.00 99.99     0.275 HD
ATOM     67  HZ2 LYS     4      55.656  38.928  43.868  1.00 99.99     0.275 HD
ATOM     68  HZ1 LYS     4      54.034  39.130  43.897  1.00 99.99     0.275 HD
ENDBRANCH  64  65
ENDBRANCH  63  64
ENDBRANCH  62  63
ENDBRANCH  61  62
ENDBRANCH  22  61
ENDBRANCH  20  22
ENDBRANCH  16  18
ENDBRANCH  13  16
ENDBRANCH  11  12
BRANCH  11  69
ATOM     69  CB  PHE     2      65.112  40.230  47.243  1.00  0.00     0.056 C 
BRANCH  69  70
ATOM     70  CG  PHE     2      66.215  41.226  46.871  1.00  0.00    -0.044 A 
ATOM     71  CD2 PHE     2      67.453  41.144  47.498  1.00  0.00     0.008 A 
ATOM     72  CE2 PHE     2      68.444  42.073  47.205  1.00  0.00     0.001 A 
ATOM     73  CZ  PHE     2      68.195  43.091  46.292  1.00  0.00     0.000 A 
ATOM     74  CE1 PHE     2      66.957  43.176  45.670  1.00  0.00     0.001 A 
ATOM     75  CD1 PHE     2      65.964  42.249  45.962  1.00  0.00     0.008 A 
ENDBRANCH  69  70
ENDBRANCH  11  69
ENDBRANCH   9  11
ENDBRANCH   5   7
ENDBRANCH   1   5
TORSDOF 33
ENDMDL
MODEL 8
REMARK VINA RESULT:      -4.7      2.089      4.148
REMARK WARNING: 32 MAX_TORS EXCEEDED!!!
REMARK  33 active torsions:
REMARK  status: ('A' for Active; 'I' for Inactive)
REMARK    1  A    between atoms: N_1  and  CA_2 
REMARK    2  A    between atoms: CA_2  and  C_3 
REMARK       I    between atoms: C_3  and  N_9 
REMARK    3  A    between atoms: N_9  and  CA_10 
REMARK    4  A    between atoms: CA_10  and  C_11 
REMARK    5  A    between atoms: CA_10  and  CB_13 
REMARK       I    between atoms: C_11  and  N_21 
REMARK    6  A    between atoms: CB_13  and  CG_14 
REMARK    7  A    between atoms: N_21  and  CA_22 
REMARK    8  A    between atoms: CA_22  and  C_23 
REMARK       I    between atoms: C_23  and  N_27 
REMARK    9  A    between atoms: N_27  and  CA_28 
REMARK   10  A    between atoms: CA_28  and  C_29 
REMARK   11  A    between atoms: CA_28  and  CB_31 
REMARK       I    between atoms: C_29  and  N_40 
REMARK   12  A    between atoms: CB_31  and  CG_32 
REMARK   13  A    between atoms: CG_32  and  CD_33 
REMARK   14  A    between atoms: CD_33  and  CE_34 
REMARK   15  A    between atoms: CE_34  and  NZ_35 
REMARK   16  A    between atoms: N_40  and  CA_41 
REMARK   17  A    between atoms: CA_41  and  CB_44 
REMARK   18  A    between atoms: CA_41  and  C_42 
REMARK       I    between atoms: C_42  and  N_49 
REMARK   19  A    between atoms: CB_44  and  CG_45 
REMARK   20  A    between atoms: N_49  and  CA_50 
REMARK   21  A    between atoms: CA_50  and  C_51 
REMARK   22  A    between atoms: CA_50  and  CB_53 
REMARK       I    between atoms: C_51  and  N_62 
REMARK   23  A    between atoms: CB_53  and  CG_54 
REMARK   24  A    between atoms: CG_54  and  CD_55 
REMARK   25  A    between atoms: CD_55  and  CE_56 
REMARK   26  A    between atoms: CE_56  and  NZ_57 
REMARK   27  A    between atoms: N_62  and  CA_63 
REMARK   28  A    between atoms: CA_63  and  CB_66 
REMARK   29  A    between atoms: CA_63  and  C_64 
REMARK   30  A    between atoms: CB_66  and  CG_67 
REMARK   31  A    between atoms: CG_67  and  CD_68 
REMARK   32  A    between atoms: CD_68  and  CE_69 
REMARK   33  A    between atoms: CE_69  and  NZ_70 
ROOT
ATOM      1  N   ALA     1      63.679  46.679  50.888  1.00  0.00    -0.058 N 
ATOM      2  H1  ALA     1      62.705  46.461  50.940  1.00 99.99     0.276 HD
ATOM      3  H2  ALA     1      64.138  46.301  51.693  1.00 99.99     0.276 HD
ATOM      4  H3  ALA     1      63.824  47.662  50.975  1.00 99.99     0.276 HD
ENDROOT
BRANCH   1   5
ATOM      5  CA  ALA     1      64.274  46.153  49.630  1.00  0.00     0.255 C 
ATOM      6  CB  ALA     1      65.803  46.230  49.765  1.00  0.00     0.042 C 
BRANCH   5   7
ATOM      7  C   ALA     1      63.841  44.738  49.144  1.00  0.00     0.259 C 
ATOM      8  O   ALA     1      63.354  44.581  48.022  1.00  0.00    -0.271 OA
ATOM      9  N   PHE     2      63.722  43.784  50.075  1.00  0.00    -0.337 N 
ATOM     10  H   PHE     2      63.696  44.005  51.047  1.00 99.99     0.164 HD
BRANCH   9  11
ATOM     11  CA  PHE     2      63.565  42.336  49.776  1.00  0.00     0.164 C 
BRANCH  11  12
ATOM     12  C   PHE     2      64.351  41.799  48.555  1.00  0.00     0.251 C 
ATOM     13  N   ALA     3      63.660  41.653  47.423  1.00  0.00    -0.338 N 
ATOM     14  H   ALA     3      62.669  41.755  47.408  1.00 99.99     0.164 HD
ATOM     15  O   PHE     2      65.579  41.731  48.598  1.00  0.00    -0.271 OA
BRANCH  13  16
ATOM     16  CA  ALA     3      64.237  41.210  46.132  1.00  0.00     0.159 C 
ATOM     17  CB  ALA     3      63.892  39.733  45.927  1.00  0.00     0.034 C 
BRANCH  16  18
ATOM     18  C   ALA     3      63.846  42.018  44.872  1.00  0.00     0.251 C 
ATOM     19  O   ALA     3      64.369  43.108  44.660  1.00  0.00    -0.271 OA
ATOM     20  N   LYS     4      62.962  41.467  44.038  1.00  0.00    -0.338 N 
ATOM     21  H   LYS     4      62.602  40.544  44.191  1.00 99.99     0.164 HD
BRANCH  20  22
ATOM     22  CA  LYS     4      62.416  42.122  42.825  1.00  0.00     0.159 C 
BRANCH  22  23
ATOM     23  C   LYS     4      60.907  42.449  42.887  1.00  0.00     0.251 C 
ATOM     24  N   LEU     5      60.190  42.031  41.848  1.00  0.00    -0.338 N 
ATOM     25  H   LEU     5      60.641  41.716  41.013  1.00 99.99     0.164 HD
ATOM     26  O   LYS     4      60.462  43.221  43.734  1.00  0.00    -0.271 OA
BRANCH  24  27
ATOM     27  CA  LEU     5      58.720  42.138  41.732  1.00  0.00     0.159 C 
BRANCH  27  28
ATOM     28  CB  LEU     5      58.318  42.077  40.253  1.00  0.00     0.032 C 
BRANCH  28  29
ATOM     29  CG  LEU     5      59.437  42.444  39.271  1.00  0.00     0.002 C 
ATOM     30  CD2 LEU     5      59.400  43.932  38.910  1.00  0.00     0.000 C 
ATOM     31  CD1 LEU     5      59.281  41.605  38.002  1.00  0.00     0.000 C 
ENDBRANCH  28  29
ENDBRANCH  27  28
BRANCH  27  32
ATOM     32  C   LEU     5      57.988  41.009  42.483  1.00  0.00     0.251 C 
ATOM     33  O   LEU     5      57.753  39.940  41.926  1.00  0.00    -0.271 OA
ATOM     34  N   LYS     6      57.843  41.201  43.794  1.00  0.00    -0.338 N 
ATOM     35  H   LYS     6      58.380  41.898  44.268  1.00 99.99     0.164 HD
BRANCH  34  36
ATOM     36  CA  LYS     6      57.101  40.293  44.694  1.00  0.00     0.159 C 
BRANCH  36  37
ATOM     37  C   LYS     6      56.575  40.985  45.976  1.00  0.00     0.251 C 
ATOM     38  O   LYS     6      55.386  40.934  46.286  1.00  0.00    -0.271 OA
ATOM     39  N   LYS     7      57.494  41.521  46.775  1.00  0.00    -0.336 N 
ATOM     40  H   LYS     7      58.465  41.468  46.553  1.00 99.99     0.164 HD
BRANCH  39  41
ATOM     41  CA  LYS     7      57.187  42.363  47.955  1.00  0.00     0.168 C 
BRANCH  41  42
ATOM     42  CB  LYS     7      58.279  42.273  49.021  1.00  0.00     0.033 C 
BRANCH  42  43
ATOM     43  CG  LYS     7      57.884  42.142  50.488  1.00  0.00     0.004 C 
BRANCH  43  44
ATOM     44  CD  LYS     7      56.430  41.676  50.437  1.00  0.00     0.032 C 
BRANCH  44  45
ATOM     45  CE  LYS     7      55.464  42.478  51.303  1.00  0.00     0.206 C 
BRANCH  45  46
ATOM     46  NZ  LYS     7      55.049  43.662  50.538  1.00  0.00    -0.064 N 
ATOM     47  HZ1 LYS     7      55.809  44.305  50.467  1.00 99.99     0.275 HD
ATOM     48  HZ2 LYS     7      54.757  43.377  49.624  1.00 99.99     0.275 HD
ATOM     49  HZ3 LYS     7      54.280  44.099  51.004  1.00 99.99     0.275 HD
ENDBRANCH  45  46
ENDBRANCH  44  45
ENDBRANCH  43  44
ENDBRANCH  42  43
ENDBRANCH  41  42
BRANCH  41  50
ATOM     50  C   LYS     7      57.211  43.831  47.513  1.00  0.00     0.206 C 
ATOM     51  OXT LYS     7      58.154  44.126  46.744  1.00 99.99    -0.646 OA
ATOM     52  O   LYS     7      56.317  44.599  47.931  1.00 99.99    -0.646 OA
ENDBRANCH  41  50
ENDBRANCH  39  41
ENDBRANCH  36  37
BRANCH  36  53
ATOM     53  CB  LYS     6      58.017  39.116  45.045  1.00  0.00     0.032 C 
BRANCH  53  54
ATOM     54  CG  LYS     6      57.325  37.798  44.690  1.00  0.00     0.004 C 
BRANCH  54  55
ATOM     55  CD  LYS     6      55.875  37.992  44.254  1.00  0.00     0.032 C 
BRANCH  55  56
ATOM     56  CE  LYS     6      54.972  37.288  45.266  1.00  0.00     0.206 C 
BRANCH  56  57
ATOM     57  NZ  LYS     6      54.106  38.237  45.977  1.00  0.00    -0.064 N 
ATOM     58  HZ3 LYS     6      54.589  38.597  46.775  1.00 99.99     0.275 HD
ATOM     59  HZ2 LYS     6      53.272  37.770  46.265  1.00 99.99     0.275 HD
ATOM     60  HZ1 LYS     6      53.874  38.990  45.361  1.00 99.99     0.275 HD
ENDBRANCH  56  57
ENDBRANCH  55  56
ENDBRANCH  54  55
ENDBRANCH  53  54
ENDBRANCH  36  53
ENDBRANCH  34  36
ENDBRANCH  27  32
ENDBRANCH  24  27
ENDBRANCH  22  23
BRANCH  22  61
ATOM     61  CB  LYS     4      62.644  41.224  41.605  1.00  0.00     0.032 C 
BRANCH  61  62
ATOM     62  CG  LYS     4      63.120  39.808  41.924  1.00  0.00     0.004 C 
BRANCH  62  63
ATOM     63  CD  LYS     4      62.637  38.890  40.800  1.00  0.00     0.032 C 
BRANCH  63  64
ATOM     64  CE  LYS     4      61.339  39.383  40.163  1.00  0.00     0.206 C 
BRANCH  64  65
ATOM     65  NZ  LYS     4      60.192  38.626  40.687  1.00  0.00    -0.064 N 
ATOM     66  HZ3 LYS     4      60.354  37.647  40.558  1.00 99.99     0.275 HD
ATOM     67  HZ2 LYS     4      59.359  38.891  40.202  1.00 99.99     0.275 HD
ATOM     68  HZ1 LYS     4      60.086  38.816  41.664  1.00 99.99     0.275 HD
ENDBRANCH  64  65
ENDBRANCH  63  64
ENDBRANCH  62  63
ENDBRANCH  61  62
ENDBRANCH  22  61
ENDBRANCH  20  22
ENDBRANCH  16  18
ENDBRANCH  13  16
ENDBRANCH  11  12
BRANCH  11  69
ATOM     69  CB  PHE     2      62.062  42.034  49.683  1.00  0.00     0.056 C 
BRANCH  69  70
ATOM     70  CG  PHE     2      61.467  41.416  50.952  1.00  0.00    -0.044 A 
ATOM     71  CD2 PHE     2      61.168  42.232  52.037  1.00  0.00     0.008 A 
ATOM     72  CE2 PHE     2      60.674  41.676  53.211  1.00  0.00     0.001 A 
ATOM     73  CZ  PHE     2      60.492  40.301  53.306  1.00  0.00     0.000 A 
ATOM     74  CE1 PHE     2      60.797  39.485  52.225  1.00  0.00     0.001 A 
ATOM     75  CD1 PHE     2      61.290  40.040  51.050  1.00  0.00     0.008 A 
ENDBRANCH  69  70
ENDBRANCH  11  69
ENDBRANCH   9  11
ENDBRANCH   5   7
ENDBRANCH   1   5
TORSDOF 33
ENDMDL
MODEL 9
REMARK VINA RESULT:      -4.6      3.194     10.836
REMARK WARNING: 32 MAX_TORS EXCEEDED!!!
REMARK  33 active torsions:
REMARK  status: ('A' for Active; 'I' for Inactive)
REMARK    1  A    between atoms: N_1  and  CA_2 
REMARK    2  A    between atoms: CA_2  and  C_3 
REMARK       I    between atoms: C_3  and  N_9 
REMARK    3  A    between atoms: N_9  and  CA_10 
REMARK    4  A    between atoms: CA_10  and  C_11 
REMARK    5  A    between atoms: CA_10  and  CB_13 
REMARK       I    between atoms: C_11  and  N_21 
REMARK    6  A    between atoms: CB_13  and  CG_14 
REMARK    7  A    between atoms: N_21  and  CA_22 
REMARK    8  A    between atoms: CA_22  and  C_23 
REMARK       I    between atoms: C_23  and  N_27 
REMARK    9  A    between atoms: N_27  and  CA_28 
REMARK   10  A    between atoms: CA_28  and  C_29 
REMARK   11  A    between atoms: CA_28  and  CB_31 
REMARK       I    between atoms: C_29  and  N_40 
REMARK   12  A    between atoms: CB_31  and  CG_32 
REMARK   13  A    between atoms: CG_32  and  CD_33 
REMARK   14  A    between atoms: CD_33  and  CE_34 
REMARK   15  A    between atoms: CE_34  and  NZ_35 
REMARK   16  A    between atoms: N_40  and  CA_41 
REMARK   17  A    between atoms: CA_41  and  CB_44 
REMARK   18  A    between atoms: CA_41  and  C_42 
REMARK       I    between atoms: C_42  and  N_49 
REMARK   19  A    between atoms: CB_44  and  CG_45 
REMARK   20  A    between atoms: N_49  and  CA_50 
REMARK   21  A    between atoms: CA_50  and  C_51 
REMARK   22  A    between atoms: CA_50  and  CB_53 
REMARK       I    between atoms: C_51  and  N_62 
REMARK   23  A    between atoms: CB_53  and  CG_54 
REMARK   24  A    between atoms: CG_54  and  CD_55 
REMARK   25  A    between atoms: CD_55  and  CE_56 
REMARK   26  A    between atoms: CE_56  and  NZ_57 
REMARK   27  A    between atoms: N_62  and  CA_63 
REMARK   28  A    between atoms: CA_63  and  CB_66 
REMARK   29  A    between atoms: CA_63  and  C_64 
REMARK   30  A    between atoms: CB_66  and  CG_67 
REMARK   31  A    between atoms: CG_67  and  CD_68 
REMARK   32  A    between atoms: CD_68  and  CE_69 
REMARK   33  A    between atoms: CE_69  and  NZ_70 
ROOT
ATOM      1  N   ALA     1      53.322  38.691  48.995  1.00  0.00    -0.058 N 
ATOM      2  H1  ALA     1      52.332  38.711  48.854  1.00 99.99     0.276 HD
ATOM      3  H2  ALA     1      53.722  38.015  48.377  1.00 99.99     0.276 HD
ATOM      4  H3  ALA     1      53.541  38.340  49.902  1.00 99.99     0.276 HD
ENDROOT
BRANCH   1   5
ATOM      5  CA  ALA     1      53.915  40.038  48.779  1.00  0.00     0.255 C 
ATOM      6  CB  ALA     1      53.417  40.959  49.904  1.00  0.00     0.042 C 
BRANCH   5   7
ATOM      7  C   ALA     1      55.462  40.148  48.632  1.00  0.00     0.259 C 
ATOM      8  O   ALA     1      56.117  39.211  48.169  1.00  0.00    -0.271 OA
ATOM      9  N   PHE     2      56.070  41.135  49.300  1.00  0.00    -0.337 N 
ATOM     10  H   PHE     2      55.602  41.639  50.023  1.00 99.99     0.164 HD
BRANCH   9  11
ATOM     11  CA  PHE     2      57.483  41.545  49.088  1.00  0.00     0.164 C 
BRANCH  11  12
ATOM     12  C   PHE     2      58.387  41.566  50.345  1.00  0.00     0.251 C 
ATOM     13  N   ALA     3      57.932  42.258  51.391  1.00  0.00    -0.338 N 
ATOM     14  H   ALA     3      57.123  42.836  51.313  1.00 99.99     0.164 HD
ATOM     15  O   PHE     2      59.349  40.803  50.421  1.00  0.00    -0.271 OA
BRANCH  13  16
ATOM     16  CA  ALA     3      58.614  42.356  52.703  1.00  0.00     0.159 C 
ATOM     17  CB  ALA     3      58.185  41.165  53.562  1.00  0.00     0.034 C 
BRANCH  16  18
ATOM     18  C   ALA     3      60.156  42.463  52.688  1.00  0.00     0.251 C 
ATOM     19  O   ALA     3      60.691  43.547  52.474  1.00  0.00    -0.271 OA
ATOM     20  N   LYS     4      60.852  41.353  52.944  1.00  0.00    -0.338 N 
ATOM     21  H   LYS     4      60.397  40.494  53.188  1.00 99.99     0.164 HD
BRANCH  20  22
ATOM     22  CA  LYS     4      62.330  41.249  52.901  1.00  0.00     0.159 C 
BRANCH  22  23
ATOM     23  C   LYS     4      62.909  40.779  51.546  1.00  0.00     0.251 C 
ATOM     24  N   LEU     5      62.379  41.354  50.470  1.00  0.00    -0.338 N 
ATOM     25  H   LEU     5      61.538  41.889  50.542  1.00 99.99     0.164 HD
ATOM     26  O   LYS     4      63.647  39.799  51.481  1.00  0.00    -0.271 OA
BRANCH  24  27
ATOM     27  CA  LEU     5      62.838  41.141  49.080  1.00  0.00     0.159 C 
BRANCH  27  28
ATOM     28  CB  LEU     5      61.665  41.356  48.116  1.00  0.00     0.032 C 
BRANCH  28  29
ATOM     29  CG  LEU     5      61.506  40.266  47.050  1.00  0.00     0.002 C 
ATOM     30  CD2 LEU     5      61.537  40.857  45.637  1.00  0.00     0.000 C 
ATOM     31  CD1 LEU     5      60.177  39.542  47.273  1.00  0.00     0.000 C 
ENDBRANCH  28  29
ENDBRANCH  27  28
BRANCH  27  32
ATOM     32  C   LEU     5      63.977  42.101  48.685  1.00  0.00     0.251 C 
ATOM     33  O   LEU     5      65.150  41.747  48.779  1.00  0.00    -0.271 OA
ATOM     34  N   LYS     6      63.592  43.208  48.051  1.00  0.00    -0.338 N 
ATOM     35  H   LYS     6      62.676  43.276  47.658  1.00 99.99     0.164 HD
BRANCH  34  36
ATOM     36  CA  LYS     6      64.503  44.303  47.656  1.00  0.00     0.159 C 
BRANCH  36  37
ATOM     37  C   LYS     6      65.337  43.990  46.389  1.00  0.00     0.251 C 
ATOM     38  O   LYS     6      66.265  44.718  46.041  1.00  0.00    -0.271 OA
ATOM     39  N   LYS     7      65.074  42.836  45.781  1.00  0.00    -0.336 N 
ATOM     40  H   LYS     7      64.380  42.213  46.136  1.00 99.99     0.164 HD
BRANCH  39  41
ATOM     41  CA  LYS     7      65.641  42.432  44.474  1.00  0.00     0.168 C 
BRANCH  41  42
ATOM     42  CB  LYS     7      66.424  41.122  44.571  1.00  0.00     0.033 C 
BRANCH  42  43
ATOM     43  CG  LYS     7      67.218  40.817  45.838  1.00  0.00     0.004 C 
BRANCH  43  44
ATOM     44  CD  LYS     7      68.645  41.235  45.486  1.00  0.00     0.032 C 
BRANCH  44  45
ATOM     45  CE  LYS     7      69.097  42.561  46.089  1.00  0.00     0.206 C 
BRANCH  45  46
ATOM     46  NZ  LYS     7      68.976  43.593  45.049  1.00  0.00    -0.064 N 
ATOM     47  HZ1 LYS     7      69.567  43.367  44.277  1.00 99.99     0.275 HD
ATOM     48  HZ2 LYS     7      68.023  43.644  44.747  1.00 99.99     0.275 HD
ATOM     49  HZ3 LYS     7      69.244  44.476  45.433  1.00 99.99     0.275 HD
ENDBRANCH  45  46
ENDBRANCH  44  45
ENDBRANCH  43  44
ENDBRANCH  42  43
ENDBRANCH  41  42
BRANCH  41  50
ATOM     50  C   LYS     7      64.478  42.105  43.529  1.00  0.00     0.206 C 
ATOM     51  OXT LYS     7      63.502  42.885  43.619  1.00 99.99    -0.646 OA
ATOM     52  O   LYS     7      64.585  41.125  42.761  1.00 99.99    -0.646 OA
ENDBRANCH  41  50
ENDBRANCH  39  41
ENDBRANCH  36  37
BRANCH  36  53
ATOM     53  CB  LYS     6      65.415  44.618  48.846  1.00  0.00     0.032 C 
BRANCH  53  54
ATOM     54  CG  LYS     6      65.206  46.067  49.290  1.00  0.00     0.004 C 
BRANCH  54  55
ATOM     55  CD  LYS     6      63.732  46.458  49.355  1.00  0.00     0.032 C 
BRANCH  55  56
ATOM     56  CE  LYS     6      63.247  46.261  50.791  1.00  0.00     0.206 C 
BRANCH  56  57
ATOM     57  NZ  LYS     6      62.669  44.926  50.992  1.00  0.00    -0.064 N 
ATOM     58  HZ3 LYS     6      62.878  44.608  51.917  1.00 99.99     0.275 HD
ATOM     59  HZ2 LYS     6      63.054  44.295  50.320  1.00 99.99     0.275 HD
ATOM     60  HZ1 LYS     6      61.678  44.979  50.875  1.00 99.99     0.275 HD
ENDBRANCH  56  57
ENDBRANCH  55  56
ENDBRANCH  54  55
ENDBRANCH  53  54
ENDBRANCH  36  53
ENDBRANCH  34  36
ENDBRANCH  27  32
ENDBRANCH  24  27
ENDBRANCH  22  23
BRANCH  22  61
ATOM     61  CB  LYS     4      62.811  40.266  53.973  1.00  0.00     0.032 C 
BRANCH  61  62
ATOM     62  CG  LYS     4      62.259  40.518  55.375  1.00  0.00     0.004 C 
BRANCH  62  63
ATOM     63  CD  LYS     4      61.534  39.247  55.824  1.00  0.00     0.032 C 
BRANCH  63  64
ATOM     64  CE  LYS     4      60.568  39.507  56.980  1.00  0.00     0.206 C 
BRANCH  64  65
ATOM     65  NZ  LYS     4      61.121  40.519  57.892  1.00  0.00    -0.064 N 
ATOM     66  HZ3 LYS     4      60.509  41.311  57.919  1.00 99.99     0.275 HD
ATOM     67  HZ2 LYS     4      62.022  40.809  57.570  1.00 99.99     0.275 HD
ATOM     68  HZ1 LYS     4      61.201  40.132  58.810  1.00 99.99     0.275 HD
ENDBRANCH  64  65
ENDBRANCH  63  64
ENDBRANCH  62  63
ENDBRANCH  61  62
ENDBRANCH  22  61
ENDBRANCH  20  22
ENDBRANCH  16  18
ENDBRANCH  13  16
ENDBRANCH  11  12
BRANCH  11  69
ATOM     69  CB  PHE     2      57.479  42.890  48.347  1.00  0.00     0.056 C 
BRANCH  69  70
ATOM     70  CG  PHE     2      57.946  42.805  46.891  1.00  0.00    -0.044 A 
ATOM     71  CD2 PHE     2      58.715  43.833  46.357  1.00  0.00     0.008 A 
ATOM     72  CE2 PHE     2      59.103  43.790  45.023  1.00  0.00     0.001 A 
ATOM     73  CZ  PHE     2      58.711  42.726  44.219  1.00  0.00     0.000 A 
ATOM     74  CE1 PHE     2      57.938  41.703  44.751  1.00  0.00     0.001 A 
ATOM     75  CD1 PHE     2      57.549  41.744  46.084  1.00  0.00     0.008 A 
ENDBRANCH  69  70
ENDBRANCH  11  69
ENDBRANCH   9  11
ENDBRANCH   5   7
ENDBRANCH   1   5
TORSDOF 33
ENDMDL
