MODEL 1
REMARK VINA RESULT:      -5.8      0.000      0.000
REMARK  26 active torsions:
REMARK  status: ('A' for Active; 'I' for Inactive)
REMARK    1  A    between atoms: N_1  and  CA_2 
REMARK    2  A    between atoms: CA_2  and  C_3 
REMARK    3  A    between atoms: CA_2  and  CB_5 
REMARK       I    between atoms: C_3  and  N_11 
REMARK    4  A    between atoms: N_11  and  CA_12 
REMARK    5  A    between atoms: CA_12  and  C_13 
REMARK       I    between atoms: C_13  and  N_16 
REMARK    6  A    between atoms: N_16  and  CA_17 
REMARK    7  A    between atoms: CA_17  and  C_18 
REMARK    8  A    between atoms: CA_17  and  CB_20 
REMARK       I    between atoms: C_18  and  N_24 
REMARK    9  A    between atoms: N_24  and  CA_25 
REMARK   10  A    between atoms: CA_25  and  C_26 
REMARK       I    between atoms: C_26  and  N_29 
REMARK   11  A    between atoms: N_29  and  CA_30 
REMARK   12  A    between atoms: CA_30  and  C_31 
REMARK       I    between atoms: C_31  and  N_34 
REMARK   13  A    between atoms: N_34  and  CA_35 
REMARK   14  A    between atoms: CA_35  and  C_36 
REMARK       I    between atoms: C_36  and  N_39 
REMARK   15  A    between atoms: N_39  and  CA_40 
REMARK   16  A    between atoms: CA_40  and  C_41 
REMARK   17  A    between atoms: CA_40  and  CB_43 
REMARK       I    between atoms: C_41  and  N_51 
REMARK   18  A    between atoms: CB_43  and  CG_44 
REMARK   19  A    between atoms: N_51  and  CA_52 
REMARK   20  A    between atoms: CA_52  and  C_53 
REMARK       I    between atoms: C_53  and  N_56 
REMARK   21  A    between atoms: N_56  and  CA_57 
REMARK   22  A    between atoms: CA_57  and  CB_60 
REMARK   23  A    between atoms: CA_57  and  C_58 
REMARK   24  A    between atoms: CB_60  and  CG_61 
REMARK   25  A    between atoms: CG_61  and  CD_62 
REMARK   26  A    between atoms: CD_62  and  NE_63 
REMARK       I    between atoms: NE_63  and  CZ_64 
REMARK       I    between atoms: CZ_64  and  NH1_65 
ROOT
ATOM      1  N   VAL     1      54.169  37.822  48.606  1.00  0.00    -0.058 N 
ATOM      2  H1  VAL     1      54.162  37.225  47.804  1.00 99.99     0.276 HD
ATOM      3  H2  VAL     1      55.104  37.950  48.892  1.00 99.99     0.276 HD
ATOM      4  H3  VAL     1      53.722  37.374  49.361  1.00 99.99     0.276 HD
ENDROOT
BRANCH   1   5
ATOM      5  CA  VAL     1      53.515  39.093  48.238  1.00  0.00     0.255 C 
BRANCH   5   6
ATOM      6  C   VAL     1      54.280  39.676  47.028  1.00  0.00     0.259 C 
ATOM      7  N   GLY     2      54.413  38.855  45.980  1.00  0.00    -0.336 N 
ATOM      8  H   GLY     2      54.055  37.912  45.964  1.00 99.99     0.164 HD
ATOM      9  O   VAL     1      54.904  40.734  47.145  1.00  0.00    -0.271 OA
BRANCH   7  10
ATOM     10  CA  GLY     2      55.096  39.279  44.745  1.00  0.00     0.189 C 
BRANCH  10  11
ATOM     11  C   GLY     2      56.624  39.247  44.846  1.00  0.00     0.253 C 
ATOM     12  O   GLY     2      57.245  38.191  45.003  1.00  0.00    -0.270 OA
ATOM     13  N   VAL     3      57.155  40.463  44.892  1.00  0.00    -0.337 N 
ATOM     14  H   VAL     3      56.598  41.270  44.692  1.00 99.99     0.164 HD
BRANCH  13  15
ATOM     15  CA  VAL     3      58.597  40.754  45.066  1.00  0.00     0.159 C 
BRANCH  15  16
ATOM     16  C   VAL     3      58.842  41.881  46.093  1.00  0.00     0.251 C 
ATOM     17  O   VAL     3      59.893  41.892  46.725  1.00  0.00    -0.271 OA
ATOM     18  N   GLY     4      57.801  42.706  46.327  1.00  0.00    -0.336 N 
ATOM     19  H   GLY     4      56.867  42.451  46.070  1.00 99.99     0.164 HD
BRANCH  18  20
ATOM     20  CA  GLY     4      57.828  43.966  47.112  1.00  0.00     0.189 C 
BRANCH  20  21
ATOM     21  C   GLY     4      56.696  44.169  48.132  1.00  0.00     0.253 C 
ATOM     22  N   GLY     5      56.408  43.079  48.849  1.00  0.00    -0.336 N 
ATOM     23  H   GLY     5      56.853  42.189  48.689  1.00 99.99     0.164 HD
ATOM     24  O   GLY     4      56.161  45.266  48.275  1.00  0.00    -0.270 OA
BRANCH  22  25
ATOM     25  CA  GLY     5      55.418  43.085  49.946  1.00  0.00     0.189 C 
BRANCH  25  26
ATOM     26  C   GLY     5      56.053  42.643  51.273  1.00  0.00     0.253 C 
ATOM     27  N   GLY     6      57.131  41.856  51.151  1.00  0.00    -0.336 N 
ATOM     28  H   GLY     6      57.416  41.455  50.271  1.00 99.99     0.164 HD
ATOM     29  O   GLY     5      55.558  42.991  52.344  1.00  0.00    -0.270 OA
BRANCH  27  30
ATOM     30  CA  GLY     6      57.900  41.337  52.306  1.00  0.00     0.189 C 
BRANCH  30  31
ATOM     31  C   GLY     6      59.169  42.163  52.586  1.00  0.00     0.253 C 
ATOM     32  O   GLY     6      59.103  43.228  53.194  1.00  0.00    -0.270 OA
ATOM     33  N   PHE     7      60.308  41.554  52.268  1.00  0.00    -0.337 N 
ATOM     34  H   PHE     7      60.310  40.614  51.922  1.00 99.99     0.164 HD
BRANCH  33  35
ATOM     35  CA  PHE     7      61.634  42.194  52.355  1.00  0.00     0.164 C 
BRANCH  35  36
ATOM     36  C   PHE     7      61.829  43.200  51.209  1.00  0.00     0.251 C 
ATOM     37  O   PHE     7      61.284  43.033  50.121  1.00  0.00    -0.271 OA
ATOM     38  N   GLY     8      62.481  44.318  51.561  1.00  0.00    -0.336 N 
ATOM     39  H   GLY     8      62.858  44.463  52.486  1.00 99.99     0.164 HD
BRANCH  38  40
ATOM     40  CA  GLY     8      62.801  45.364  50.565  1.00  0.00     0.189 C 
BRANCH  40  41
ATOM     41  C   GLY     8      64.229  45.263  50.019  1.00  0.00     0.253 C 
ATOM     42  N   ARG     9      64.408  44.318  49.103  1.00  0.00    -0.336 N 
ATOM     43  H   ARG     9      63.664  43.707  48.829  1.00 99.99     0.164 HD
ATOM     44  O   GLY     8      65.120  46.015  50.406  1.00  0.00    -0.270 OA
BRANCH  42  45
ATOM     45  CA  ARG     9      65.693  44.120  48.394  1.00  0.00     0.168 C 
BRANCH  45  46
ATOM     46  CB  ARG     9      66.152  42.661  48.529  1.00  0.00     0.035 C 
BRANCH  46  47
ATOM     47  CG  ARG     9      66.544  42.030  47.190  1.00  0.00     0.027 C 
BRANCH  47  48
ATOM     48  CD  ARG     9      65.714  40.774  46.922  1.00  0.00     0.116 C 
BRANCH  48  49
ATOM     49  NE  ARG     9      64.542  40.739  47.818  1.00  0.00    -0.212 N 
ATOM     50  CZ  ARG     9      63.281  41.031  47.488  1.00  0.00     0.666 C 
ATOM     51  NH1 ARG     9      62.942  41.414  46.263  1.00  0.00    -0.235 N 
ATOM     52  NH2 ARG     9      62.314  40.934  48.390  1.00  0.00    -0.235 N 
ATOM     53 2HH1 ARG     9      63.649  41.489  45.565  1.00 99.99     0.174 HD
ATOM     54 1HH1 ARG     9      61.990  41.627  46.046  1.00 99.99     0.174 HD
ATOM     55 2HH2 ARG     9      62.513  40.643  49.324  1.00 99.99     0.174 HD
ATOM     56 1HH2 ARG     9      61.376  41.156  48.129  1.00 99.99     0.174 HD
ATOM     57  HE  ARG     9      64.731  40.465  48.759  1.00 99.99     0.178 HD
ENDBRANCH  48  49
ENDBRANCH  47  48
ENDBRANCH  46  47
ENDBRANCH  45  46
BRANCH  45  58
ATOM     58  C   ARG     9      65.552  44.476  46.902  1.00  0.00     0.206 C 
ATOM     59  OXT ARG     9      64.491  44.104  46.351  1.00 99.99    -0.646 OA
ATOM     60  O   ARG     9      66.381  45.267  46.406  1.00 99.99    -0.646 OA
ENDBRANCH  45  58
ENDBRANCH  42  45
ENDBRANCH  40  41
ENDBRANCH  38  40
ENDBRANCH  35  36
BRANCH  35  61
ATOM     61  CB  PHE     7      62.749  41.138  52.341  1.00  0.00     0.056 C 
BRANCH  61  62
ATOM     62  CG  PHE     7      63.313  40.918  53.744  1.00  0.00    -0.044 A 
ATOM     63  CD2 PHE     7      64.232  39.902  53.987  1.00  0.00     0.008 A 
ATOM     64  CE2 PHE     7      64.755  39.735  55.263  1.00  0.00     0.001 A 
ATOM     65  CZ  PHE     7      64.368  40.585  56.292  1.00  0.00     0.000 A 
ATOM     66  CE1 PHE     7      63.446  41.594  56.049  1.00  0.00     0.001 A 
ATOM     67  CD1 PHE     7      62.921  41.763  54.775  1.00  0.00     0.008 A 
ENDBRANCH  61  62
ENDBRANCH  35  61
ENDBRANCH  33  35
ENDBRANCH  30  31
ENDBRANCH  27  30
ENDBRANCH  25  26
ENDBRANCH  22  25
ENDBRANCH  20  21
ENDBRANCH  18  20
ENDBRANCH  15  16
BRANCH  15  68
ATOM     68  CB  VAL     3      59.231  41.090  43.695  1.00  0.00     0.029 C 
ATOM     69  CG1 VAL     3      59.839  39.865  43.000  1.00  0.00     0.002 C 
ATOM     70  CG2 VAL     3      58.216  41.721  42.735  1.00  0.00     0.002 C 
ENDBRANCH  15  68
ENDBRANCH  13  15
ENDBRANCH  10  11
ENDBRANCH   7  10
ENDBRANCH   5   6
BRANCH   5  71
ATOM     71  CB  VAL     1      53.488  40.075  49.438  1.00  0.00     0.037 C 
ATOM     72  CG2 VAL     1      54.214  39.475  50.649  1.00  0.00     0.002 C 
ATOM     73  CG1 VAL     1      52.073  40.461  49.891  1.00  0.00     0.002 C 
ENDBRANCH   5  71
ENDBRANCH   1   5
TORSDOF 26
ENDMDL
MODEL 2
REMARK VINA RESULT:      -5.4      2.409      7.627
REMARK  26 active torsions:
REMARK  status: ('A' for Active; 'I' for Inactive)
REMARK    1  A    between atoms: N_1  and  CA_2 
REMARK    2  A    between atoms: CA_2  and  C_3 
REMARK    3  A    between atoms: CA_2  and  CB_5 
REMARK       I    between atoms: C_3  and  N_11 
REMARK    4  A    between atoms: N_11  and  CA_12 
REMARK    5  A    between atoms: CA_12  and  C_13 
REMARK       I    between atoms: C_13  and  N_16 
REMARK    6  A    between atoms: N_16  and  CA_17 
REMARK    7  A    between atoms: CA_17  and  C_18 
REMARK    8  A    between atoms: CA_17  and  CB_20 
REMARK       I    between atoms: C_18  and  N_24 
REMARK    9  A    between atoms: N_24  and  CA_25 
REMARK   10  A    between atoms: CA_25  and  C_26 
REMARK       I    between atoms: C_26  and  N_29 
REMARK   11  A    between atoms: N_29  and  CA_30 
REMARK   12  A    between atoms: CA_30  and  C_31 
REMARK       I    between atoms: C_31  and  N_34 
REMARK   13  A    between atoms: N_34  and  CA_35 
REMARK   14  A    between atoms: CA_35  and  C_36 
REMARK       I    between atoms: C_36  and  N_39 
REMARK   15  A    between atoms: N_39  and  CA_40 
REMARK   16  A    between atoms: CA_40  and  C_41 
REMARK   17  A    between atoms: CA_40  and  CB_43 
REMARK       I    between atoms: C_41  and  N_51 
REMARK   18  A    between atoms: CB_43  and  CG_44 
REMARK   19  A    between atoms: N_51  and  CA_52 
REMARK   20  A    between atoms: CA_52  and  C_53 
REMARK       I    between atoms: C_53  and  N_56 
REMARK   21  A    between atoms: N_56  and  CA_57 
REMARK   22  A    between atoms: CA_57  and  CB_60 
REMARK   23  A    between atoms: CA_57  and  C_58 
REMARK   24  A    between atoms: CB_60  and  CG_61 
REMARK   25  A    between atoms: CG_61  and  CD_62 
REMARK   26  A    between atoms: CD_62  and  NE_63 
REMARK       I    between atoms: NE_63  and  CZ_64 
REMARK       I    between atoms: CZ_64  and  NH1_65 
ROOT
ATOM      1  N   VAL     1      58.805  37.792  49.388  1.00  0.00    -0.058 N 
ATOM      2  H1  VAL     1      57.972  38.273  49.115  1.00 99.99     0.276 HD
ATOM      3  H2  VAL     1      58.584  36.844  49.540  1.00 99.99     0.276 HD
ATOM      4  H3  VAL     1      59.118  38.133  50.258  1.00 99.99     0.276 HD
ENDROOT
BRANCH   1   5
ATOM      5  CA  VAL     1      59.809  37.970  48.320  1.00  0.00     0.255 C 
BRANCH   5   6
ATOM      6  C   VAL     1      60.926  38.880  48.879  1.00  0.00     0.259 C 
ATOM      7  N   GLY     2      62.153  38.652  48.397  1.00  0.00    -0.336 N 
ATOM      8  H   GLY     2      62.359  37.931  47.721  1.00 99.99     0.164 HD
ATOM      9  O   VAL     1      60.705  39.594  49.862  1.00  0.00    -0.271 OA
BRANCH   7  10
ATOM     10  CA  GLY     2      63.314  39.456  48.818  1.00  0.00     0.189 C 
BRANCH  10  11
ATOM     11  C   GLY     2      64.097  40.062  47.650  1.00  0.00     0.253 C 
ATOM     12  O   GLY     2      65.303  39.850  47.494  1.00  0.00    -0.270 OA
ATOM     13  N   VAL     3      63.373  40.925  46.946  1.00  0.00    -0.337 N 
ATOM     14  H   VAL     3      62.386  40.995  47.088  1.00 99.99     0.164 HD
BRANCH  13  15
ATOM     15  CA  VAL     3      63.877  41.725  45.806  1.00  0.00     0.159 C 
BRANCH  15  16
ATOM     16  C   VAL     3      64.516  43.053  46.266  1.00  0.00     0.251 C 
ATOM     17  O   VAL     3      63.793  43.944  46.696  1.00  0.00    -0.271 OA
ATOM     18  N   GLY     4      65.836  43.191  46.022  1.00  0.00    -0.336 N 
ATOM     19  H   GLY     4      66.306  42.607  45.357  1.00 99.99     0.164 HD
BRANCH  18  20
ATOM     20  CA  GLY     4      66.721  44.271  46.525  1.00  0.00     0.189 C 
BRANCH  20  21
ATOM     21  C   GLY     4      66.636  44.590  48.028  1.00  0.00     0.253 C 
ATOM     22  N   GLY     5      66.013  45.738  48.305  1.00  0.00    -0.336 N 
ATOM     23  H   GLY     5      65.685  46.367  47.589  1.00 99.99     0.164 HD
ATOM     24  O   GLY     4      67.075  43.807  48.868  1.00  0.00    -0.270 OA
BRANCH  22  25
ATOM     25  CA  GLY     5      65.743  46.185  49.688  1.00  0.00     0.189 C 
BRANCH  25  26
ATOM     26  C   GLY     5      64.284  45.913  50.087  1.00  0.00     0.253 C 
ATOM     27  N   GLY     6      63.516  45.403  49.113  1.00  0.00    -0.336 N 
ATOM     28  H   GLY     6      63.820  45.347  48.153  1.00 99.99     0.164 HD
ATOM     29  O   GLY     5      63.890  46.182  51.220  1.00  0.00    -0.270 OA
BRANCH  27  30
ATOM     30  CA  GLY     6      62.089  45.053  49.296  1.00  0.00     0.189 C 
BRANCH  30  31
ATOM     31  C   GLY     6      61.900  43.635  49.865  1.00  0.00     0.253 C 
ATOM     32  O   GLY     6      61.909  42.656  49.126  1.00  0.00    -0.270 OA
ATOM     33  N   PHE     7      61.897  43.569  51.194  1.00  0.00    -0.337 N 
ATOM     34  H   PHE     7      62.057  44.385  51.752  1.00 99.99     0.164 HD
BRANCH  33  35
ATOM     35  CA  PHE     7      61.631  42.333  51.954  1.00  0.00     0.164 C 
BRANCH  35  36
ATOM     36  C   PHE     7      60.154  42.260  52.376  1.00  0.00     0.251 C 
ATOM     37  O   PHE     7      59.608  43.212  52.927  1.00  0.00    -0.271 OA
ATOM     38  N   GLY     8      59.508  41.169  51.939  1.00  0.00    -0.336 N 
ATOM     39  H   GLY     8      59.965  40.433  51.423  1.00 99.99     0.164 HD
BRANCH  38  40
ATOM     40  CA  GLY     8      58.096  40.919  52.304  1.00  0.00     0.189 C 
BRANCH  40  41
ATOM     41  C   GLY     8      57.173  40.773  51.089  1.00  0.00     0.253 C 
ATOM     42  N   ARG     9      56.730  41.921  50.587  1.00  0.00    -0.336 N 
ATOM     43  H   ARG     9      56.964  42.800  51.005  1.00 99.99     0.164 HD
ATOM     44  O   GLY     8      56.888  39.672  50.626  1.00  0.00    -0.270 OA
BRANCH  42  45
ATOM     45  CA  ARG     9      55.899  41.995  49.365  1.00  0.00     0.168 C 
BRANCH  45  46
ATOM     46  CB  ARG     9      54.411  42.046  49.739  1.00  0.00     0.035 C 
BRANCH  46  47
ATOM     47  CG  ARG     9      53.596  40.913  49.109  1.00  0.00     0.027 C 
BRANCH  47  48
ATOM     48  CD  ARG     9      53.439  39.750  50.090  1.00  0.00     0.116 C 
BRANCH  48  49
ATOM     49  NE  ARG     9      53.744  40.200  51.463  1.00  0.00    -0.212 N 
ATOM     50  CZ  ARG     9      53.903  39.421  52.537  1.00  0.00     0.666 C 
ATOM     51  NH1 ARG     9      53.785  38.100  52.474  1.00  0.00    -0.235 N 
ATOM     52  NH2 ARG     9      54.200  39.957  53.713  1.00  0.00    -0.235 N 
ATOM     53 2HH1 ARG     9      53.569  37.673  51.601  1.00 99.99     0.174 HD
ATOM     54 1HH1 ARG     9      53.909  37.544  53.295  1.00 99.99     0.174 HD
ATOM     55 2HH2 ARG     9      54.307  40.943  53.813  1.00 99.99     0.174 HD
ATOM     56 1HH2 ARG     9      54.315  39.361  54.507  1.00 99.99     0.174 HD
ATOM     57  HE  ARG     9      53.837  41.186  51.579  1.00 99.99     0.178 HD
ENDBRANCH  48  49
ENDBRANCH  47  48
ENDBRANCH  46  47
ENDBRANCH  45  46
BRANCH  45  58
ATOM     58  C   ARG     9      56.261  43.241  48.534  1.00  0.00     0.206 C 
ATOM     59  OXT ARG     9      56.644  43.022  47.363  1.00 99.99    -0.646 OA
ATOM     60  O   ARG     9      55.963  44.362  48.996  1.00 99.99    -0.646 OA
ENDBRANCH  45  58
ENDBRANCH  42  45
ENDBRANCH  40  41
ENDBRANCH  38  40
ENDBRANCH  35  36
BRANCH  35  61
ATOM     61  CB  PHE     7      62.548  42.242  53.182  1.00  0.00     0.056 C 
BRANCH  61  62
ATOM     62  CG  PHE     7      62.699  40.793  53.647  1.00  0.00    -0.044 A 
ATOM     63  CD2 PHE     7      63.273  39.838  52.814  1.00  0.00     0.008 A 
ATOM     64  CE2 PHE     7      63.427  38.532  53.264  1.00  0.00     0.001 A 
ATOM     65  CZ  PHE     7      63.017  38.184  54.546  1.00  0.00     0.000 A 
ATOM     66  CE1 PHE     7      62.438  39.137  55.372  1.00  0.00     0.001 A 
ATOM     67  CD1 PHE     7      62.281  40.442  54.925  1.00  0.00     0.008 A 
ENDBRANCH  61  62
ENDBRANCH  35  61
ENDBRANCH  33  35
ENDBRANCH  30  31
ENDBRANCH  27  30
ENDBRANCH  25  26
ENDBRANCH  22  25
ENDBRANCH  20  21
ENDBRANCH  18  20
ENDBRANCH  15  16
BRANCH  15  68
ATOM     68  CB  VAL     3      62.734  41.968  44.792  1.00  0.00     0.029 C 
ATOM     69  CG1 VAL     3      63.222  42.589  43.477  1.00  0.00     0.002 C 
ATOM     70  CG2 VAL     3      61.987  40.672  44.452  1.00  0.00     0.002 C 
ENDBRANCH  15  68
ENDBRANCH  13  15
ENDBRANCH  10  11
ENDBRANCH   7  10
ENDBRANCH   5   6
BRANCH   5  71
ATOM     71  CB  VAL     1      59.164  38.557  47.039  1.00  0.00     0.037 C 
ATOM     72  CG2 VAL     1      58.186  39.686  47.390  1.00  0.00     0.002 C 
ATOM     73  CG1 VAL     1      58.397  37.525  46.201  1.00  0.00     0.002 C 
ENDBRANCH   5  71
ENDBRANCH   1   5
TORSDOF 26
ENDMDL
MODEL 3
REMARK VINA RESULT:      -5.3      2.723      8.231
REMARK  26 active torsions:
REMARK  status: ('A' for Active; 'I' for Inactive)
REMARK    1  A    between atoms: N_1  and  CA_2 
REMARK    2  A    between atoms: CA_2  and  C_3 
REMARK    3  A    between atoms: CA_2  and  CB_5 
REMARK       I    between atoms: C_3  and  N_11 
REMARK    4  A    between atoms: N_11  and  CA_12 
REMARK    5  A    between atoms: CA_12  and  C_13 
REMARK       I    between atoms: C_13  and  N_16 
REMARK    6  A    between atoms: N_16  and  CA_17 
REMARK    7  A    between atoms: CA_17  and  C_18 
REMARK    8  A    between atoms: CA_17  and  CB_20 
REMARK       I    between atoms: C_18  and  N_24 
REMARK    9  A    between atoms: N_24  and  CA_25 
REMARK   10  A    between atoms: CA_25  and  C_26 
REMARK       I    between atoms: C_26  and  N_29 
REMARK   11  A    between atoms: N_29  and  CA_30 
REMARK   12  A    between atoms: CA_30  and  C_31 
REMARK       I    between atoms: C_31  and  N_34 
REMARK   13  A    between atoms: N_34  and  CA_35 
REMARK   14  A    between atoms: CA_35  and  C_36 
REMARK       I    between atoms: C_36  and  N_39 
REMARK   15  A    between atoms: N_39  and  CA_40 
REMARK   16  A    between atoms: CA_40  and  C_41 
REMARK   17  A    between atoms: CA_40  and  CB_43 
REMARK       I    between atoms: C_41  and  N_51 
REMARK   18  A    between atoms: CB_43  and  CG_44 
REMARK   19  A    between atoms: N_51  and  CA_52 
REMARK   20  A    between atoms: CA_52  and  C_53 
REMARK       I    between atoms: C_53  and  N_56 
REMARK   21  A    between atoms: N_56  and  CA_57 
REMARK   22  A    between atoms: CA_57  and  CB_60 
REMARK   23  A    between atoms: CA_57  and  C_58 
REMARK   24  A    between atoms: CB_60  and  CG_61 
REMARK   25  A    between atoms: CG_61  and  CD_62 
REMARK   26  A    between atoms: CD_62  and  NE_63 
REMARK       I    between atoms: NE_63  and  CZ_64 
REMARK       I    between atoms: CZ_64  and  NH1_65 
ROOT
ATOM      1  N   VAL     1      65.599  37.493  48.942  1.00  0.00    -0.058 N 
ATOM      2  H1  VAL     1      66.172  36.810  49.394  1.00 99.99     0.276 HD
ATOM      3  H2  VAL     1      64.760  37.060  48.660  1.00 99.99     0.276 HD
ATOM      4  H3  VAL     1      66.032  37.796  48.110  1.00 99.99     0.276 HD
ENDROOT
BRANCH   1   5
ATOM      5  CA  VAL     1      65.368  38.599  49.891  1.00  0.00     0.255 C 
BRANCH   5   6
ATOM      6  C   VAL     1      64.245  39.486  49.306  1.00  0.00     0.259 C 
ATOM      7  N   GLY     2      63.971  39.290  48.011  1.00  0.00    -0.336 N 
ATOM      8  H   GLY     2      64.460  38.621  47.435  1.00 99.99     0.164 HD
ATOM      9  O   VAL     1      63.818  40.447  49.952  1.00  0.00    -0.271 OA
BRANCH   7  10
ATOM     10  CA  GLY     2      62.909  40.043  47.320  1.00  0.00     0.189 C 
BRANCH  10  11
ATOM     11  C   GLY     2      63.413  41.301  46.607  1.00  0.00     0.253 C 
ATOM     12  O   GLY     2      62.881  42.403  46.774  1.00  0.00    -0.270 OA
ATOM     13  N   VAL     3      64.358  41.033  45.712  1.00  0.00    -0.337 N 
ATOM     14  H   VAL     3      64.786  40.130  45.679  1.00 99.99     0.164 HD
BRANCH  13  15
ATOM     15  CA  VAL     3      64.985  42.030  44.814  1.00  0.00     0.159 C 
BRANCH  15  16
ATOM     16  C   VAL     3      64.191  42.211  43.502  1.00  0.00     0.251 C 
ATOM     17  O   VAL     3      64.795  42.210  42.436  1.00  0.00    -0.271 OA
ATOM     18  N   GLY     4      62.881  42.504  43.638  1.00  0.00    -0.336 N 
ATOM     19  H   GLY     4      62.512  42.847  44.504  1.00 99.99     0.164 HD
BRANCH  18  20
ATOM     20  CA  GLY     4      61.865  42.538  42.557  1.00  0.00     0.189 C 
BRANCH  20  21
ATOM     21  C   GLY     4      60.557  43.288  42.862  1.00  0.00     0.253 C 
ATOM     22  N   GLY     5      60.193  43.246  44.147  1.00  0.00    -0.336 N 
ATOM     23  H   GLY     5      60.699  42.715  44.839  1.00 99.99     0.164 HD
ATOM     24  O   GLY     4      59.956  43.899  41.981  1.00  0.00    -0.270 OA
BRANCH  22  25
ATOM     25  CA  GLY     5      59.020  43.978  44.668  1.00  0.00     0.189 C 
BRANCH  25  26
ATOM     26  C   GLY     5      58.546  43.392  46.007  1.00  0.00     0.253 C 
ATOM     27  N   GLY     6      59.429  43.487  47.011  1.00  0.00    -0.336 N 
ATOM     28  H   GLY     6      60.385  43.775  46.870  1.00 99.99     0.164 HD
ATOM     29  O   GLY     5      57.440  42.863  46.095  1.00  0.00    -0.270 OA
BRANCH  27  30
ATOM     30  CA  GLY     6      59.162  43.000  48.384  1.00  0.00     0.189 C 
BRANCH  30  31
ATOM     31  C   GLY     6      60.455  42.692  49.160  1.00  0.00     0.253 C 
ATOM     32  O   GLY     6      60.802  41.533  49.367  1.00  0.00    -0.270 OA
ATOM     33  N   PHE     7      61.210  43.756  49.422  1.00  0.00    -0.337 N 
ATOM     34  H   PHE     7      60.955  44.664  49.086  1.00 99.99     0.164 HD
BRANCH  33  35
ATOM     35  CA  PHE     7      62.437  43.711  50.239  1.00  0.00     0.164 C 
BRANCH  35  36
ATOM     36  C   PHE     7      62.106  43.369  51.701  1.00  0.00     0.251 C 
ATOM     37  O   PHE     7      61.763  44.244  52.492  1.00  0.00    -0.271 OA
ATOM     38  N   GLY     8      62.059  42.055  51.964  1.00  0.00    -0.336 N 
ATOM     39  H   GLY     8      62.276  41.351  51.274  1.00 99.99     0.164 HD
BRANCH  38  40
ATOM     40  CA  GLY     8      61.809  41.556  53.334  1.00  0.00     0.189 C 
BRANCH  40  41
ATOM     41  C   GLY     8      60.334  41.238  53.602  1.00  0.00     0.253 C 
ATOM     42  N   ARG     9      59.473  41.913  52.847  1.00  0.00    -0.336 N 
ATOM     43  H   ARG     9      59.783  42.596  52.184  1.00 99.99     0.164 HD
ATOM     44  O   GLY     8      59.998  40.413  54.447  1.00  0.00    -0.270 OA
BRANCH  42  45
ATOM     45  CA  ARG     9      58.012  41.684  52.896  1.00  0.00     0.168 C 
BRANCH  45  46
ATOM     46  CB  ARG     9      57.263  42.958  52.480  1.00  0.00     0.035 C 
BRANCH  46  47
ATOM     47  CG  ARG     9      55.781  42.711  52.180  1.00  0.00     0.027 C 
BRANCH  47  48
ATOM     48  CD  ARG     9      55.393  43.327  50.835  1.00  0.00     0.116 C 
BRANCH  48  49
ATOM     49  NE  ARG     9      54.254  42.594  50.250  1.00  0.00    -0.212 N 
ATOM     50  CZ  ARG     9      54.321  41.599  49.360  1.00  0.00     0.666 C 
ATOM     51  NH1 ARG     9      55.479  41.159  48.881  1.00  0.00    -0.235 N 
ATOM     52  NH2 ARG     9      53.214  41.007  48.933  1.00  0.00    -0.235 N 
ATOM     53 2HH1 ARG     9      56.325  41.583  49.191  1.00 99.99     0.174 HD
ATOM     54 1HH1 ARG     9      55.498  40.414  48.216  1.00 99.99     0.174 HD
ATOM     55 2HH2 ARG     9      52.320  41.295  49.268  1.00 99.99     0.174 HD
ATOM     56 1HH2 ARG     9      53.282  40.266  48.267  1.00 99.99     0.174 HD
ATOM     57  HE  ARG     9      53.352  42.884  50.564  1.00 99.99     0.178 HD
ENDBRANCH  48  49
ENDBRANCH  47  48
ENDBRANCH  46  47
ENDBRANCH  45  46
BRANCH  45  58
ATOM     58  C   ARG     9      57.610  40.526  51.962  1.00  0.00     0.206 C 
ATOM     59  OXT ARG     9      57.908  40.672  50.755  1.00 99.99    -0.646 OA
ATOM     60  O   ARG     9      57.215  39.462  52.482  1.00 99.99    -0.646 OA
ENDBRANCH  45  58
ENDBRANCH  42  45
ENDBRANCH  40  41
ENDBRANCH  38  40
ENDBRANCH  35  36
BRANCH  35  61
ATOM     61  CB  PHE     7      63.194  45.045  50.156  1.00  0.00     0.056 C 
BRANCH  61  62
ATOM     62  CG  PHE     7      64.542  44.867  49.457  1.00  0.00    -0.044 A 
ATOM     63  CD2 PHE     7      65.348  45.967  49.181  1.00  0.00     0.008 A 
ATOM     64  CE2 PHE     7      66.583  45.783  48.570  1.00  0.00     0.001 A 
ATOM     65  CZ  PHE     7      67.015  44.503  48.244  1.00  0.00     0.000 A 
ATOM     66  CE1 PHE     7      66.206  43.407  48.514  1.00  0.00     0.001 A 
ATOM     67  CD1 PHE     7      64.972  43.588  49.123  1.00  0.00     0.008 A 
ENDBRANCH  61  62
ENDBRANCH  35  61
ENDBRANCH  33  35
ENDBRANCH  30  31
ENDBRANCH  27  30
ENDBRANCH  25  26
ENDBRANCH  22  25
ENDBRANCH  20  21
ENDBRANCH  18  20
ENDBRANCH  15  16
BRANCH  15  68
ATOM     68  CB  VAL     3      66.454  41.633  44.537  1.00  0.00     0.029 C 
ATOM     69  CG1 VAL     3      67.465  42.570  45.211  1.00  0.00     0.002 C 
ATOM     70  CG2 VAL     3      66.756  40.203  45.000  1.00  0.00     0.002 C 
ENDBRANCH  15  68
ENDBRANCH  13  15
ENDBRANCH  10  11
ENDBRANCH   7  10
ENDBRANCH   5   6
BRANCH   5  71
ATOM     71  CB  VAL     1      66.670  39.400  50.144  1.00  0.00     0.037 C 
ATOM     72  CG2 VAL     1      67.338  39.789  48.819  1.00  0.00     0.002 C 
ATOM     73  CG1 VAL     1      67.711  38.643  50.981  1.00  0.00     0.002 C 
ENDBRANCH   5  71
ENDBRANCH   1   5
TORSDOF 26
ENDMDL
MODEL 4
REMARK VINA RESULT:      -5.3      2.977      8.096
REMARK  26 active torsions:
REMARK  status: ('A' for Active; 'I' for Inactive)
REMARK    1  A    between atoms: N_1  and  CA_2 
REMARK    2  A    between atoms: CA_2  and  C_3 
REMARK    3  A    between atoms: CA_2  and  CB_5 
REMARK       I    between atoms: C_3  and  N_11 
REMARK    4  A    between atoms: N_11  and  CA_12 
REMARK    5  A    between atoms: CA_12  and  C_13 
REMARK       I    between atoms: C_13  and  N_16 
REMARK    6  A    between atoms: N_16  and  CA_17 
REMARK    7  A    between atoms: CA_17  and  C_18 
REMARK    8  A    between atoms: CA_17  and  CB_20 
REMARK       I    between atoms: C_18  and  N_24 
REMARK    9  A    between atoms: N_24  and  CA_25 
REMARK   10  A    between atoms: CA_25  and  C_26 
REMARK       I    between atoms: C_26  and  N_29 
REMARK   11  A    between atoms: N_29  and  CA_30 
REMARK   12  A    between atoms: CA_30  and  C_31 
REMARK       I    between atoms: C_31  and  N_34 
REMARK   13  A    between atoms: N_34  and  CA_35 
REMARK   14  A    between atoms: CA_35  and  C_36 
REMARK       I    between atoms: C_36  and  N_39 
REMARK   15  A    between atoms: N_39  and  CA_40 
REMARK   16  A    between atoms: CA_40  and  C_41 
REMARK   17  A    between atoms: CA_40  and  CB_43 
REMARK       I    between atoms: C_41  and  N_51 
REMARK   18  A    between atoms: CB_43  and  CG_44 
REMARK   19  A    between atoms: N_51  and  CA_52 
REMARK   20  A    between atoms: CA_52  and  C_53 
REMARK       I    between atoms: C_53  and  N_56 
REMARK   21  A    between atoms: N_56  and  CA_57 
REMARK   22  A    between atoms: CA_57  and  CB_60 
REMARK   23  A    between atoms: CA_57  and  C_58 
REMARK   24  A    between atoms: CB_60  and  CG_61 
REMARK   25  A    between atoms: CG_61  and  CD_62 
REMARK   26  A    between atoms: CD_62  and  NE_63 
REMARK       I    between atoms: NE_63  and  CZ_64 
REMARK       I    between atoms: CZ_64  and  NH1_65 
ROOT
ATOM      1  N   VAL     1      60.683  37.490  45.265  1.00  0.00    -0.058 N 
ATOM      2  H1  VAL     1      60.883  36.561  44.953  1.00 99.99     0.276 HD
ATOM      3  H2  VAL     1      60.651  37.488  46.250  1.00 99.99     0.276 HD
ATOM      4  H3  VAL     1      59.781  37.755  44.972  1.00 99.99     0.276 HD
ENDROOT
BRANCH   1   5
ATOM      5  CA  VAL     1      61.732  38.387  44.741  1.00  0.00     0.255 C 
BRANCH   5   6
ATOM      6  C   VAL     1      61.406  39.816  45.227  1.00  0.00     0.259 C 
ATOM      7  N   GLY     2      62.389  40.441  45.886  1.00  0.00    -0.336 N 
ATOM      8  H   GLY     2      63.287  40.020  46.072  1.00 99.99     0.164 HD
ATOM      9  O   VAL     1      60.243  40.228  45.196  1.00  0.00    -0.271 OA
BRANCH   7  10
ATOM     10  CA  GLY     2      62.234  41.818  46.388  1.00  0.00     0.189 C 
BRANCH  10  11
ATOM     11  C   GLY     2      63.483  42.361  47.089  1.00  0.00     0.253 C 
ATOM     12  O   GLY     2      63.411  43.028  48.125  1.00  0.00    -0.270 OA
ATOM     13  N   VAL     3      64.590  42.154  46.384  1.00  0.00    -0.337 N 
ATOM     14  H   VAL     3      64.582  41.548  45.589  1.00 99.99     0.164 HD
BRANCH  13  15
ATOM     15  CA  VAL     3      65.940  42.631  46.765  1.00  0.00     0.159 C 
BRANCH  15  16
ATOM     16  C   VAL     3      65.951  44.138  47.101  1.00  0.00     0.251 C 
ATOM     17  O   VAL     3      65.946  44.952  46.185  1.00  0.00    -0.271 OA
ATOM     18  N   GLY     4      66.111  44.453  48.403  1.00  0.00    -0.336 N 
ATOM     19  H   GLY     4      66.468  43.786  49.059  1.00 99.99     0.164 HD
BRANCH  18  20
ATOM     20  CA  GLY     4      65.968  45.799  49.012  1.00  0.00     0.189 C 
BRANCH  20  21
ATOM     21  C   GLY     4      64.565  46.186  49.510  1.00  0.00     0.253 C 
ATOM     22  N   GLY     5      64.037  45.316  50.376  1.00  0.00    -0.336 N 
ATOM     23  H   GLY     5      64.493  44.454  50.628  1.00 99.99     0.164 HD
ATOM     24  O   GLY     4      64.033  47.235  49.154  1.00  0.00    -0.270 OA
BRANCH  22  25
ATOM     25  CA  GLY     5      62.739  45.546  51.045  1.00  0.00     0.189 C 
BRANCH  25  26
ATOM     26  C   GLY     5      62.126  44.227  51.539  1.00  0.00     0.253 C 
ATOM     27  N   GLY     6      61.760  43.374  50.572  1.00  0.00    -0.336 N 
ATOM     28  H   GLY     6      61.741  43.633  49.597  1.00 99.99     0.164 HD
ATOM     29  O   GLY     5      61.979  44.023  52.743  1.00  0.00    -0.270 OA
BRANCH  27  30
ATOM     30  CA  GLY     6      61.167  42.043  50.835  1.00  0.00     0.189 C 
BRANCH  30  31
ATOM     31  C   GLY     6      60.485  41.447  49.590  1.00  0.00     0.253 C 
ATOM     32  O   GLY     6      60.832  40.356  49.146  1.00  0.00    -0.270 OA
ATOM     33  N   PHE     7      59.420  42.122  49.166  1.00  0.00    -0.337 N 
ATOM     34  H   PHE     7      59.083  42.921  49.666  1.00 99.99     0.164 HD
BRANCH  33  35
ATOM     35  CA  PHE     7      58.676  41.792  47.936  1.00  0.00     0.164 C 
BRANCH  35  36
ATOM     36  C   PHE     7      58.688  42.978  46.957  1.00  0.00     0.251 C 
ATOM     37  O   PHE     7      58.745  44.134  47.367  1.00  0.00    -0.271 OA
ATOM     38  N   GLY     8      58.806  42.628  45.668  1.00  0.00    -0.336 N 
ATOM     39  H   GLY     8      58.831  41.667  45.362  1.00 99.99     0.164 HD
BRANCH  38  40
ATOM     40  CA  GLY     8      58.779  43.644  44.593  1.00  0.00     0.189 C 
BRANCH  40  41
ATOM     41  C   GLY     8      59.688  43.298  43.409  1.00  0.00     0.253 C 
ATOM     42  N   ARG     9      59.068  43.220  42.236  1.00  0.00    -0.336 N 
ATOM     43  H   ARG     9      58.078  43.347  42.158  1.00 99.99     0.164 HD
ATOM     44  O   GLY     8      60.894  43.121  43.555  1.00  0.00    -0.270 OA
BRANCH  42  45
ATOM     45  CA  ARG     9      59.785  42.982  40.963  1.00  0.00     0.168 C 
BRANCH  45  46
ATOM     46  CB  ARG     9      59.456  41.583  40.424  1.00  0.00     0.035 C 
BRANCH  46  47
ATOM     47  CG  ARG     9      57.964  41.245  40.507  1.00  0.00     0.027 C 
BRANCH  47  48
ATOM     48  CD  ARG     9      57.738  40.009  41.379  1.00  0.00     0.116 C 
BRANCH  48  49
ATOM     49  NE  ARG     9      57.279  40.412  42.723  1.00  0.00    -0.212 N 
ATOM     50  CZ  ARG     9      57.017  39.599  43.750  1.00  0.00     0.666 C 
ATOM     51  NH1 ARG     9      57.137  38.280  43.654  1.00  0.00    -0.235 N 
ATOM     52  NH2 ARG     9      56.633  40.098  44.917  1.00  0.00    -0.235 N 
ATOM     53 2HH1 ARG     9      57.430  37.881  42.790  1.00 99.99     0.174 HD
ATOM     54 1HH1 ARG     9      56.933  37.697  44.440  1.00 99.99     0.174 HD
ATOM     55 2HH2 ARG     9      56.535  41.083  45.044  1.00 99.99     0.174 HD
ATOM     56 1HH2 ARG     9      56.441  39.477  45.675  1.00 99.99     0.174 HD
ATOM     57  HE  ARG     9      57.161  41.394  42.857  1.00 99.99     0.178 HD
ENDBRANCH  48  49
ENDBRANCH  47  48
ENDBRANCH  46  47
ENDBRANCH  45  46
BRANCH  45  58
ATOM     58  C   ARG     9      59.396  44.040  39.913  1.00  0.00     0.206 C 
ATOM     59  OXT ARG     9      59.135  45.180  40.360  1.00 99.99    -0.646 OA
ATOM     60  O   ARG     9      59.562  43.760  38.708  1.00 99.99    -0.646 OA
ENDBRANCH  45  58
ENDBRANCH  42  45
ENDBRANCH  40  41
ENDBRANCH  38  40
ENDBRANCH  35  36
BRANCH  35  61
ATOM     61  CB  PHE     7      57.233  41.382  48.267  1.00  0.00     0.056 C 
BRANCH  61  62
ATOM     62  CG  PHE     7      56.766  42.026  49.573  1.00  0.00    -0.044 A 
ATOM     63  CD2 PHE     7      56.003  43.189  49.556  1.00  0.00     0.008 A 
ATOM     64  CE2 PHE     7      55.564  43.745  50.751  1.00  0.00     0.001 A 
ATOM     65  CZ  PHE     7      55.881  43.137  51.960  1.00  0.00     0.000 A 
ATOM     66  CE1 PHE     7      56.649  41.981  51.975  1.00  0.00     0.001 A 
ATOM     67  CD1 PHE     7      57.090  41.424  50.782  1.00  0.00     0.008 A 
ENDBRANCH  61  62
ENDBRANCH  35  61
ENDBRANCH  33  35
ENDBRANCH  30  31
ENDBRANCH  27  30
ENDBRANCH  25  26
ENDBRANCH  22  25
ENDBRANCH  20  21
ENDBRANCH  18  20
ENDBRANCH  15  16
BRANCH  15  68
ATOM     68  CB  VAL     3      66.949  42.294  45.641  1.00  0.00     0.029 C 
ATOM     69  CG1 VAL     3      68.375  42.765  45.956  1.00  0.00     0.002 C 
ATOM     70  CG2 VAL     3      67.002  40.788  45.354  1.00  0.00     0.002 C 
ENDBRANCH  15  68
ENDBRANCH  13  15
ENDBRANCH  10  11
ENDBRANCH   7  10
ENDBRANCH   5   6
BRANCH   5  71
ATOM     71  CB  VAL     1      61.818  38.302  43.196  1.00  0.00     0.037 C 
ATOM     72  CG2 VAL     1      62.231  39.653  42.598  1.00  0.00     0.002 C 
ATOM     73  CG1 VAL     1      60.504  37.882  42.523  1.00  0.00     0.002 C 
ENDBRANCH   5  71
ENDBRANCH   1   5
TORSDOF 26
ENDMDL
MODEL 5
REMARK VINA RESULT:      -5.3      2.587      9.526
REMARK  26 active torsions:
REMARK  status: ('A' for Active; 'I' for Inactive)
REMARK    1  A    between atoms: N_1  and  CA_2 
REMARK    2  A    between atoms: CA_2  and  C_3 
REMARK    3  A    between atoms: CA_2  and  CB_5 
REMARK       I    between atoms: C_3  and  N_11 
REMARK    4  A    between atoms: N_11  and  CA_12 
REMARK    5  A    between atoms: CA_12  and  C_13 
REMARK       I    between atoms: C_13  and  N_16 
REMARK    6  A    between atoms: N_16  and  CA_17 
REMARK    7  A    between atoms: CA_17  and  C_18 
REMARK    8  A    between atoms: CA_17  and  CB_20 
REMARK       I    between atoms: C_18  and  N_24 
REMARK    9  A    between atoms: N_24  and  CA_25 
REMARK   10  A    between atoms: CA_25  and  C_26 
REMARK       I    between atoms: C_26  and  N_29 
REMARK   11  A    between atoms: N_29  and  CA_30 
REMARK   12  A    between atoms: CA_30  and  C_31 
REMARK       I    between atoms: C_31  and  N_34 
REMARK   13  A    between atoms: N_34  and  CA_35 
REMARK   14  A    between atoms: CA_35  and  C_36 
REMARK       I    between atoms: C_36  and  N_39 
REMARK   15  A    between atoms: N_39  and  CA_40 
REMARK   16  A    between atoms: CA_40  and  C_41 
REMARK   17  A    between atoms: CA_40  and  CB_43 
REMARK       I    between atoms: C_41  and  N_51 
REMARK   18  A    between atoms: CB_43  and  CG_44 
REMARK   19  A    between atoms: N_51  and  CA_52 
REMARK   20  A    between atoms: CA_52  and  C_53 
REMARK       I    between atoms: C_53  and  N_56 
REMARK   21  A    between atoms: N_56  and  CA_57 
REMARK   22  A    between atoms: CA_57  and  CB_60 
REMARK   23  A    between atoms: CA_57  and  C_58 
REMARK   24  A    between atoms: CB_60  and  CG_61 
REMARK   25  A    between atoms: CG_61  and  CD_62 
REMARK   26  A    between atoms: CD_62  and  NE_63 
REMARK       I    between atoms: NE_63  and  CZ_64 
REMARK       I    between atoms: CZ_64  and  NH1_65 
ROOT
ATOM      1  N   VAL     1      66.381  36.879  49.262  1.00  0.00    -0.058 N 
ATOM      2  H1  VAL     1      66.944  36.060  49.148  1.00 99.99     0.276 HD
ATOM      3  H2  VAL     1      66.959  37.616  49.569  1.00 99.99     0.276 HD
ATOM      4  H3  VAL     1      65.727  36.737  49.985  1.00 99.99     0.276 HD
ENDROOT
BRANCH   1   5
ATOM      5  CA  VAL     1      65.734  37.176  47.969  1.00  0.00     0.255 C 
BRANCH   5   6
ATOM      6  C   VAL     1      65.385  38.681  47.960  1.00  0.00     0.259 C 
ATOM      7  N   GLY     2      65.382  39.281  49.156  1.00  0.00    -0.336 N 
ATOM      8  H   GLY     2      65.580  38.798  50.020  1.00 99.99     0.164 HD
ATOM      9  O   VAL     1      64.926  39.202  46.939  1.00  0.00    -0.271 OA
BRANCH   7  10
ATOM     10  CA  GLY     2      65.092  40.718  49.303  1.00  0.00     0.189 C 
BRANCH  10  11
ATOM     11  C   GLY     2      63.631  41.018  49.651  1.00  0.00     0.253 C 
ATOM     12  O   GLY     2      62.720  40.860  48.832  1.00  0.00    -0.270 OA
ATOM     13  N   VAL     3      63.499  41.585  50.845  1.00  0.00    -0.337 N 
ATOM     14  H   VAL     3      64.271  41.620  51.479  1.00 99.99     0.164 HD
BRANCH  13  15
ATOM     15  CA  VAL     3      62.221  42.058  51.424  1.00  0.00     0.159 C 
BRANCH  15  16
ATOM     16  C   VAL     3      62.222  43.583  51.666  1.00  0.00     0.251 C 
ATOM     17  O   VAL     3      61.730  44.022  52.700  1.00  0.00    -0.271 OA
ATOM     18  N   GLY     4      62.643  44.346  50.637  1.00  0.00    -0.336 N 
ATOM     19  H   GLY     4      62.691  43.982  49.705  1.00 99.99     0.164 HD
BRANCH  18  20
ATOM     20  CA  GLY     4      62.921  45.804  50.670  1.00  0.00     0.189 C 
BRANCH  20  21
ATOM     21  C   GLY     4      63.947  46.335  49.656  1.00  0.00     0.253 C 
ATOM     22  N   GLY     5      65.042  45.578  49.543  1.00  0.00    -0.336 N 
ATOM     23  H   GLY     5      65.205  44.768  50.119  1.00 99.99     0.164 HD
ATOM     24  O   GLY     4      63.719  47.345  48.994  1.00  0.00    -0.270 OA
BRANCH  22  25
ATOM     25  CA  GLY     5      66.108  45.860  48.559  1.00  0.00     0.189 C 
BRANCH  25  26
ATOM     26  C   GLY     5      66.086  44.843  47.407  1.00  0.00     0.253 C 
ATOM     27  N   GLY     6      65.170  43.872  47.526  1.00  0.00    -0.336 N 
ATOM     28  H   GLY     6      64.642  43.722  48.372  1.00 99.99     0.164 HD
ATOM     29  O   GLY     5      66.885  44.941  46.477  1.00  0.00    -0.270 OA
BRANCH  27  30
ATOM     30  CA  GLY     6      64.972  42.805  46.518  1.00  0.00     0.189 C 
BRANCH  30  31
ATOM     31  C   GLY     6      63.645  42.960  45.752  1.00  0.00     0.253 C 
ATOM     32  O   GLY     6      63.639  43.260  44.562  1.00  0.00    -0.270 OA
ATOM     33  N   PHE     7      62.566  42.586  46.434  1.00  0.00    -0.337 N 
ATOM     34  H   PHE     7      62.646  42.193  47.352  1.00 99.99     0.164 HD
BRANCH  33  35
ATOM     35  CA  PHE     7      61.186  42.742  45.938  1.00  0.00     0.164 C 
BRANCH  35  36
ATOM     36  C   PHE     7      60.282  43.352  47.022  1.00  0.00     0.251 C 
ATOM     37  O   PHE     7      60.723  43.614  48.137  1.00  0.00    -0.271 OA
ATOM     38  N   GLY     8      59.067  43.716  46.587  1.00  0.00    -0.336 N 
ATOM     39  H   GLY     8      58.753  43.554  45.642  1.00 99.99     0.164 HD
BRANCH  38  40
ATOM     40  CA  GLY     8      58.055  44.268  47.514  1.00  0.00     0.189 C 
BRANCH  40  41
ATOM     41  C   GLY     8      57.146  43.197  48.127  1.00  0.00     0.253 C 
ATOM     42  N   ARG     9      57.313  43.006  49.431  1.00  0.00    -0.336 N 
ATOM     43  H   ARG     9      58.006  43.509  49.949  1.00 99.99     0.164 HD
ATOM     44  O   GLY     8      56.329  42.582  47.447  1.00  0.00    -0.270 OA
BRANCH  42  45
ATOM     45  CA  ARG     9      56.472  42.078  50.220  1.00  0.00     0.168 C 
BRANCH  45  46
ATOM     46  CB  ARG     9      57.305  40.875  50.686  1.00  0.00     0.035 C 
BRANCH  46  47
ATOM     47  CG  ARG     9      58.672  40.792  49.999  1.00  0.00     0.027 C 
BRANCH  47  48
ATOM     48  CD  ARG     9      58.758  39.544  49.120  1.00  0.00     0.116 C 
BRANCH  48  49
ATOM     49  NE  ARG     9      60.114  39.416  48.551  1.00  0.00    -0.212 N 
ATOM     50  CZ  ARG     9      60.555  38.431  47.763  1.00  0.00     0.666 C 
ATOM     51  NH1 ARG     9      59.782  37.413  47.406  1.00  0.00    -0.235 N 
ATOM     52  NH2 ARG     9      61.797  38.452  47.299  1.00  0.00    -0.235 N 
ATOM     53 2HH1 ARG     9      58.843  37.378  47.736  1.00 99.99     0.174 HD
ATOM     54 1HH1 ARG     9      60.140  36.691  46.815  1.00 99.99     0.174 HD
ATOM     55 2HH2 ARG     9      62.417  39.198  47.530  1.00 99.99     0.174 HD
ATOM     56 1HH2 ARG     9      62.112  37.708  46.711  1.00 99.99     0.174 HD
ATOM     57  HE  ARG     9      60.749  40.148  48.790  1.00 99.99     0.178 HD
ENDBRANCH  48  49
ENDBRANCH  47  48
ENDBRANCH  46  47
ENDBRANCH  45  46
BRANCH  45  58
ATOM     58  C   ARG     9      55.875  42.794  51.448  1.00  0.00     0.206 C 
ATOM     59  OXT ARG     9      55.414  43.938  51.239  1.00 99.99    -0.646 OA
ATOM     60  O   ARG     9      55.706  42.129  52.490  1.00 99.99    -0.646 OA
ENDBRANCH  45  58
ENDBRANCH  42  45
ENDBRANCH  40  41
ENDBRANCH  38  40
ENDBRANCH  35  36
BRANCH  35  61
ATOM     61  CB  PHE     7      60.623  41.394  45.463  1.00  0.00     0.056 C 
BRANCH  61  62
ATOM     62  CG  PHE     7      59.965  41.527  44.090  1.00  0.00    -0.044 A 
ATOM     63  CD2 PHE     7      60.684  42.019  43.005  1.00  0.00     0.008 A 
ATOM     64  CE2 PHE     7      60.077  42.108  41.757  1.00  0.00     0.001 A 
ATOM     65  CZ  PHE     7      58.759  41.699  41.593  1.00  0.00     0.000 A 
ATOM     66  CE1 PHE     7      58.042  41.215  42.679  1.00  0.00     0.001 A 
ATOM     67  CD1 PHE     7      58.645  41.126  43.926  1.00  0.00     0.008 A 
ENDBRANCH  61  62
ENDBRANCH  35  61
ENDBRANCH  33  35
ENDBRANCH  30  31
ENDBRANCH  27  30
ENDBRANCH  25  26
ENDBRANCH  22  25
ENDBRANCH  20  21
ENDBRANCH  18  20
ENDBRANCH  15  16
BRANCH  15  68
ATOM     68  CB  VAL     3      61.916  41.278  52.725  1.00  0.00     0.029 C 
ATOM     69  CG1 VAL     3      61.144  39.976  52.476  1.00  0.00     0.002 C 
ATOM     70  CG2 VAL     3      63.197  40.928  53.494  1.00  0.00     0.002 C 
ENDBRANCH  15  68
ENDBRANCH  13  15
ENDBRANCH  10  11
ENDBRANCH   7  10
ENDBRANCH   5   6
BRANCH   5  71
ATOM     71  CB  VAL     1      64.483  36.287  47.753  1.00  0.00     0.037 C 
ATOM     72  CG2 VAL     1      63.854  35.895  49.096  1.00  0.00     0.002 C 
ATOM     73  CG1 VAL     1      64.769  34.991  46.981  1.00  0.00     0.002 C 
ENDBRANCH   5  71
ENDBRANCH   1   5
TORSDOF 26
ENDMDL
MODEL 6
REMARK VINA RESULT:      -5.2      2.538      9.650
REMARK  26 active torsions:
REMARK  status: ('A' for Active; 'I' for Inactive)
REMARK    1  A    between atoms: N_1  and  CA_2 
REMARK    2  A    between atoms: CA_2  and  C_3 
REMARK    3  A    between atoms: CA_2  and  CB_5 
REMARK       I    between atoms: C_3  and  N_11 
REMARK    4  A    between atoms: N_11  and  CA_12 
REMARK    5  A    between atoms: CA_12  and  C_13 
REMARK       I    between atoms: C_13  and  N_16 
REMARK    6  A    between atoms: N_16  and  CA_17 
REMARK    7  A    between atoms: CA_17  and  C_18 
REMARK    8  A    between atoms: CA_17  and  CB_20 
REMARK       I    between atoms: C_18  and  N_24 
REMARK    9  A    between atoms: N_24  and  CA_25 
REMARK   10  A    between atoms: CA_25  and  C_26 
REMARK       I    between atoms: C_26  and  N_29 
REMARK   11  A    between atoms: N_29  and  CA_30 
REMARK   12  A    between atoms: CA_30  and  C_31 
REMARK       I    between atoms: C_31  and  N_34 
REMARK   13  A    between atoms: N_34  and  CA_35 
REMARK   14  A    between atoms: CA_35  and  C_36 
REMARK       I    between atoms: C_36  and  N_39 
REMARK   15  A    between atoms: N_39  and  CA_40 
REMARK   16  A    between atoms: CA_40  and  C_41 
REMARK   17  A    between atoms: CA_40  and  CB_43 
REMARK       I    between atoms: C_41  and  N_51 
REMARK   18  A    between atoms: CB_43  and  CG_44 
REMARK   19  A    between atoms: N_51  and  CA_52 
REMARK   20  A    between atoms: CA_52  and  C_53 
REMARK       I    between atoms: C_53  and  N_56 
REMARK   21  A    between atoms: N_56  and  CA_57 
REMARK   22  A    between atoms: CA_57  and  CB_60 
REMARK   23  A    between atoms: CA_57  and  C_58 
REMARK   24  A    between atoms: CB_60  and  CG_61 
REMARK   25  A    between atoms: CG_61  and  CD_62 
REMARK   26  A    between atoms: CD_62  and  NE_63 
REMARK       I    between atoms: NE_63  and  CZ_64 
REMARK       I    between atoms: CZ_64  and  NH1_65 
ROOT
ATOM      1  N   VAL     1      65.326  36.561  48.477  1.00  0.00    -0.058 N 
ATOM      2  H1  VAL     1      65.704  35.671  48.224  1.00 99.99     0.276 HD
ATOM      3  H2  VAL     1      66.035  37.091  48.910  1.00 99.99     0.276 HD
ATOM      4  H3  VAL     1      64.627  36.446  49.162  1.00 99.99     0.276 HD
ENDROOT
BRANCH   1   5
ATOM      5  CA  VAL     1      64.813  37.207  47.252  1.00  0.00     0.255 C 
BRANCH   5   6
ATOM      6  C   VAL     1      64.623  38.708  47.564  1.00  0.00     0.259 C 
ATOM      7  N   GLY     2      64.782  39.056  48.846  1.00  0.00    -0.336 N 
ATOM      8  H   GLY     2      65.001  38.397  49.577  1.00 99.99     0.164 HD
ATOM      9  O   VAL     1      64.135  39.458  46.713  1.00  0.00    -0.271 OA
BRANCH   7  10
ATOM     10  CA  GLY     2      64.656  40.456  49.291  1.00  0.00     0.189 C 
BRANCH  10  11
ATOM     11  C   GLY     2      63.258  40.814  49.803  1.00  0.00     0.253 C 
ATOM     12  O   GLY     2      62.238  40.512  49.179  1.00  0.00    -0.270 OA
ATOM     13  N   VAL     3      63.296  41.589  50.882  1.00  0.00    -0.337 N 
ATOM     14  H   VAL     3      64.155  41.738  51.372  1.00 99.99     0.164 HD
BRANCH  13  15
ATOM     15  CA  VAL     3      62.109  42.159  51.560  1.00  0.00     0.159 C 
BRANCH  15  16
ATOM     16  C   VAL     3      62.234  43.685  51.763  1.00  0.00     0.251 C 
ATOM     17  O   VAL     3      61.650  44.209  52.705  1.00  0.00    -0.271 OA
ATOM     18  N   GLY     4      62.873  44.362  50.787  1.00  0.00    -0.336 N 
ATOM     19  H   GLY     4      63.012  43.960  49.880  1.00 99.99     0.164 HD
BRANCH  18  20
ATOM     20  CA  GLY     4      63.292  45.786  50.825  1.00  0.00     0.189 C 
BRANCH  20  21
ATOM     21  C   GLY     4      64.299  46.238  49.755  1.00  0.00     0.253 C 
ATOM     22  N   GLY     5      65.456  45.569  49.780  1.00  0.00    -0.336 N 
ATOM     23  H   GLY     5      65.668  44.875  50.479  1.00 99.99     0.164 HD
ATOM     24  O   GLY     4      64.009  47.109  48.938  1.00  0.00    -0.270 OA
BRANCH  22  25
ATOM     25  CA  GLY     5      66.522  45.783  48.780  1.00  0.00     0.189 C 
BRANCH  25  26
ATOM     26  C   GLY     5      66.380  44.815  47.596  1.00  0.00     0.253 C 
ATOM     27  N   GLY     6      65.760  43.661  47.880  1.00  0.00    -0.336 N 
ATOM     28  H   GLY     6      65.542  43.377  48.823  1.00 99.99     0.164 HD
ATOM     29  O   GLY     5      66.838  45.110  46.494  1.00  0.00    -0.270 OA
BRANCH  27  30
ATOM     30  CA  GLY     6      65.505  42.600  46.878  1.00  0.00     0.189 C 
BRANCH  30  31
ATOM     31  C   GLY     6      64.212  42.846  46.079  1.00  0.00     0.253 C 
ATOM     32  O   GLY     6      64.257  43.226  44.912  1.00  0.00    -0.270 OA
ATOM     33  N   PHE     7      63.098  42.459  46.696  1.00  0.00    -0.337 N 
ATOM     34  H   PHE     7      63.134  42.002  47.586  1.00 99.99     0.164 HD
BRANCH  33  35
ATOM     35  CA  PHE     7      61.742  42.690  46.163  1.00  0.00     0.164 C 
BRANCH  35  36
ATOM     36  C   PHE     7      60.791  43.154  47.278  1.00  0.00     0.251 C 
ATOM     37  O   PHE     7      61.222  43.705  48.288  1.00  0.00    -0.271 OA
ATOM     38  N   GLY     8      59.489  43.062  46.967  1.00  0.00    -0.336 N 
ATOM     39  H   GLY     8      59.161  42.670  46.097  1.00 99.99     0.164 HD
BRANCH  38  40
ATOM     40  CA  GLY     8      58.441  43.415  47.949  1.00  0.00     0.189 C 
BRANCH  40  41
ATOM     41  C   GLY     8      57.987  42.228  48.805  1.00  0.00     0.253 C 
ATOM     42  N   ARG     9      57.797  41.098  48.132  1.00  0.00    -0.336 N 
ATOM     43  H   ARG     9      57.913  41.055  47.138  1.00 99.99     0.164 HD
ATOM     44  O   GLY     8      57.828  42.333  50.018  1.00  0.00    -0.270 OA
BRANCH  42  45
ATOM     45  CA  ARG     9      57.442  39.821  48.790  1.00  0.00     0.168 C 
BRANCH  45  46
ATOM     46  CB  ARG     9      56.006  39.419  48.426  1.00  0.00     0.035 C 
BRANCH  46  47
ATOM     47  CG  ARG     9      55.151  40.603  47.962  1.00  0.00     0.027 C 
BRANCH  47  48
ATOM     48  CD  ARG     9      54.168  41.020  49.056  1.00  0.00     0.116 C 
BRANCH  48  49
ATOM     49  NE  ARG     9      54.466  42.391  49.513  1.00  0.00    -0.212 N 
ATOM     50  CZ  ARG     9      54.927  42.745  50.716  1.00  0.00     0.666 C 
ATOM     51  NH1 ARG     9      55.161  41.854  51.672  1.00  0.00    -0.235 N 
ATOM     52  NH2 ARG     9      55.177  44.019  50.988  1.00  0.00    -0.235 N 
ATOM     53 2HH1 ARG     9      54.987  40.891  51.491  1.00 99.99     0.174 HD
ATOM     54 1HH1 ARG     9      55.505  42.149  52.563  1.00 99.99     0.174 HD
ATOM     55 2HH2 ARG     9      55.026  44.727  50.302  1.00 99.99     0.174 HD
ATOM     56 1HH2 ARG     9      55.521  44.267  51.893  1.00 99.99     0.174 HD
ATOM     57  HE  ARG     9      54.303  43.110  48.841  1.00 99.99     0.178 HD
ENDBRANCH  48  49
ENDBRANCH  47  48
ENDBRANCH  46  47
ENDBRANCH  45  46
BRANCH  45  58
ATOM     58  C   ARG     9      58.411  38.701  48.366  1.00  0.00     0.206 C 
ATOM     59  OXT ARG     9      59.495  39.080  47.867  1.00 99.99    -0.646 OA
ATOM     60  O   ARG     9      58.153  37.534  48.724  1.00 99.99    -0.646 OA
ENDBRANCH  45  58
ENDBRANCH  42  45
ENDBRANCH  40  41
ENDBRANCH  38  40
ENDBRANCH  35  36
BRANCH  35  61
ATOM     61  CB  PHE     7      61.201  41.421  45.487  1.00  0.00     0.056 C 
BRANCH  61  62
ATOM     62  CG  PHE     7      60.670  41.730  44.087  1.00  0.00    -0.044 A 
ATOM     63  CD2 PHE     7      61.093  42.866  43.404  1.00  0.00     0.008 A 
ATOM     64  CE2 PHE     7      60.620  43.116  42.121  1.00  0.00     0.001 A 
ATOM     65  CZ  PHE     7      59.734  42.231  41.520  1.00  0.00     0.000 A 
ATOM     66  CE1 PHE     7      59.308  41.101  42.207  1.00  0.00     0.001 A 
ATOM     67  CD1 PHE     7      59.778  40.850  43.489  1.00  0.00     0.008 A 
ENDBRANCH  61  62
ENDBRANCH  35  61
ENDBRANCH  33  35
ENDBRANCH  30  31
ENDBRANCH  27  30
ENDBRANCH  25  26
ENDBRANCH  22  25
ENDBRANCH  20  21
ENDBRANCH  18  20
ENDBRANCH  15  16
BRANCH  15  68
ATOM     68  CB  VAL     3      61.871  41.427  52.902  1.00  0.00     0.029 C 
ATOM     69  CG1 VAL     3      61.011  40.165  52.751  1.00  0.00     0.002 C 
ATOM     70  CG2 VAL     3      63.189  41.022  53.573  1.00  0.00     0.002 C 
ENDBRANCH  15  68
ENDBRANCH  13  15
ENDBRANCH  10  11
ENDBRANCH   7  10
ENDBRANCH   5   6
BRANCH   5  71
ATOM     71  CB  VAL     1      63.497  36.539  46.778  1.00  0.00     0.037 C 
ATOM     72  CG2 VAL     1      62.493  36.430  47.933  1.00  0.00     0.002 C 
ATOM     73  CG1 VAL     1      63.690  35.130  46.200  1.00  0.00     0.002 C 
ENDBRANCH   5  71
ENDBRANCH   1   5
TORSDOF 26
ENDMDL
MODEL 7
REMARK VINA RESULT:      -5.2      2.455      7.510
REMARK  26 active torsions:
REMARK  status: ('A' for Active; 'I' for Inactive)
REMARK    1  A    between atoms: N_1  and  CA_2 
REMARK    2  A    between atoms: CA_2  and  C_3 
REMARK    3  A    between atoms: CA_2  and  CB_5 
REMARK       I    between atoms: C_3  and  N_11 
REMARK    4  A    between atoms: N_11  and  CA_12 
REMARK    5  A    between atoms: CA_12  and  C_13 
REMARK       I    between atoms: C_13  and  N_16 
REMARK    6  A    between atoms: N_16  and  CA_17 
REMARK    7  A    between atoms: CA_17  and  C_18 
REMARK    8  A    between atoms: CA_17  and  CB_20 
REMARK       I    between atoms: C_18  and  N_24 
REMARK    9  A    between atoms: N_24  and  CA_25 
REMARK   10  A    between atoms: CA_25  and  C_26 
REMARK       I    between atoms: C_26  and  N_29 
REMARK   11  A    between atoms: N_29  and  CA_30 
REMARK   12  A    between atoms: CA_30  and  C_31 
REMARK       I    between atoms: C_31  and  N_34 
REMARK   13  A    between atoms: N_34  and  CA_35 
REMARK   14  A    between atoms: CA_35  and  C_36 
REMARK       I    between atoms: C_36  and  N_39 
REMARK   15  A    between atoms: N_39  and  CA_40 
REMARK   16  A    between atoms: CA_40  and  C_41 
REMARK   17  A    between atoms: CA_40  and  CB_43 
REMARK       I    between atoms: C_41  and  N_51 
REMARK   18  A    between atoms: CB_43  and  CG_44 
REMARK   19  A    between atoms: N_51  and  CA_52 
REMARK   20  A    between atoms: CA_52  and  C_53 
REMARK       I    between atoms: C_53  and  N_56 
REMARK   21  A    between atoms: N_56  and  CA_57 
REMARK   22  A    between atoms: CA_57  and  CB_60 
REMARK   23  A    between atoms: CA_57  and  C_58 
REMARK   24  A    between atoms: CB_60  and  CG_61 
REMARK   25  A    between atoms: CG_61  and  CD_62 
REMARK   26  A    between atoms: CD_62  and  NE_63 
REMARK       I    between atoms: NE_63  and  CZ_64 
REMARK       I    between atoms: CZ_64  and  NH1_65 
ROOT
ATOM      1  N   VAL     1      57.378  38.415  47.024  1.00  0.00    -0.058 N 
ATOM      2  H1  VAL     1      58.007  39.061  46.590  1.00 99.99     0.276 HD
ATOM      3  H2  VAL     1      57.529  38.438  47.998  1.00 99.99     0.276 HD
ATOM      4  H3  VAL     1      57.597  37.496  46.745  1.00 99.99     0.276 HD
ENDROOT
BRANCH   1   5
ATOM      5  CA  VAL     1      56.000  38.801  46.661  1.00  0.00     0.255 C 
BRANCH   5   6
ATOM      6  C   VAL     1      55.904  40.339  46.775  1.00  0.00     0.259 C 
ATOM      7  N   GLY     2      56.524  40.880  47.830  1.00  0.00    -0.336 N 
ATOM      8  H   GLY     2      57.017  40.337  48.522  1.00 99.99     0.164 HD
ATOM      9  O   VAL     1      55.114  40.962  46.059  1.00  0.00    -0.271 OA
BRANCH   7  10
ATOM     10  CA  GLY     2      56.540  42.336  48.058  1.00  0.00     0.189 C 
BRANCH  10  11
ATOM     11  C   GLY     2      56.421  42.728  49.533  1.00  0.00     0.253 C 
ATOM     12  O   GLY     2      55.872  43.776  49.887  1.00  0.00    -0.270 OA
ATOM     13  N   VAL     3      57.088  41.904  50.333  1.00  0.00    -0.337 N 
ATOM     14  H   VAL     3      57.452  41.041  49.984  1.00 99.99     0.164 HD
BRANCH  13  15
ATOM     15  CA  VAL     3      57.222  42.067  51.799  1.00  0.00     0.159 C 
BRANCH  15  16
ATOM     16  C   VAL     3      58.651  42.486  52.209  1.00  0.00     0.251 C 
ATOM     17  O   VAL     3      58.800  43.225  53.175  1.00  0.00    -0.271 OA
ATOM     18  N   GLY     4      59.640  42.116  51.369  1.00  0.00    -0.336 N 
ATOM     19  H   GLY     4      59.446  41.836  50.428  1.00 99.99     0.164 HD
BRANCH  18  20
ATOM     20  CA  GLY     4      61.099  42.223  51.619  1.00  0.00     0.189 C 
BRANCH  20  21
ATOM     21  C   GLY     4      61.917  40.926  51.499  1.00  0.00     0.253 C 
ATOM     22  N   GLY     5      62.519  40.771  50.317  1.00  0.00    -0.336 N 
ATOM     23  H   GLY     5      62.394  41.417  49.553  1.00 99.99     0.164 HD
ATOM     24  O   GLY     4      62.020  40.151  52.448  1.00  0.00    -0.270 OA
BRANCH  22  25
ATOM     25  CA  GLY     5      63.427  39.641  50.027  1.00  0.00     0.189 C 
BRANCH  25  26
ATOM     26  C   GLY     5      63.285  39.172  48.571  1.00  0.00     0.253 C 
ATOM     27  N   GLY     6      62.031  38.902  48.182  1.00  0.00    -0.336 N 
ATOM     28  H   GLY     6      61.258  38.857  48.829  1.00 99.99     0.164 HD
ATOM     29  O   GLY     5      64.280  39.044  47.860  1.00  0.00    -0.270 OA
BRANCH  27  30
ATOM     30  CA  GLY     6      61.676  38.454  46.816  1.00  0.00     0.189 C 
BRANCH  30  31
ATOM     31  C   GLY     6      61.532  39.629  45.831  1.00  0.00     0.253 C 
ATOM     32  O   GLY     6      62.499  40.034  45.192  1.00  0.00    -0.270 OA
ATOM     33  N   PHE     7      60.280  40.030  45.627  1.00  0.00    -0.337 N 
ATOM     34  H   PHE     7      59.510  39.554  46.055  1.00 99.99     0.164 HD
BRANCH  33  35
ATOM     35  CA  PHE     7      59.916  41.200  44.806  1.00  0.00     0.164 C 
BRANCH  35  36
ATOM     36  C   PHE     7      60.193  42.507  45.567  1.00  0.00     0.251 C 
ATOM     37  O   PHE     7      60.427  43.551  44.964  1.00  0.00    -0.271 OA
ATOM     38  N   GLY     8      59.986  42.431  46.890  1.00  0.00    -0.336 N 
ATOM     39  H   GLY     8      59.722  41.574  47.353  1.00 99.99     0.164 HD
BRANCH  38  40
ATOM     40  CA  GLY     8      60.259  43.583  47.776  1.00  0.00     0.189 C 
BRANCH  40  41
ATOM     41  C   GLY     8      61.695  43.607  48.312  1.00  0.00     0.253 C 
ATOM     42  N   ARG     9      62.013  44.699  48.999  1.00  0.00    -0.336 N 
ATOM     43  H   ARG     9      61.363  45.451  49.118  1.00 99.99     0.164 HD
ATOM     44  O   GLY     8      62.469  42.675  48.118  1.00  0.00    -0.270 OA
BRANCH  42  45
ATOM     45  CA  ARG     9      63.321  44.873  49.670  1.00  0.00     0.168 C 
BRANCH  45  46
ATOM     46  CB  ARG     9      64.394  45.265  48.644  1.00  0.00     0.035 C 
BRANCH  46  47
ATOM     47  CG  ARG     9      65.620  44.348  48.680  1.00  0.00     0.027 C 
BRANCH  47  48
ATOM     48  CD  ARG     9      66.169  44.124  47.270  1.00  0.00     0.116 C 
BRANCH  48  49
ATOM     49  NE  ARG     9      65.058  43.982  46.309  1.00  0.00    -0.212 N 
ATOM     50  CZ  ARG     9      64.509  42.837  45.894  1.00  0.00     0.666 C 
ATOM     51  NH1 ARG     9      64.939  41.654  46.318  1.00  0.00    -0.235 N 
ATOM     52  NH2 ARG     9      63.494  42.852  45.041  1.00  0.00    -0.235 N 
ATOM     53 2HH1 ARG     9      65.696  41.615  46.963  1.00 99.99     0.174 HD
ATOM     54 1HH1 ARG     9      64.508  40.814  45.989  1.00 99.99     0.174 HD
ATOM     55 2HH2 ARG     9      63.128  43.715  44.699  1.00 99.99     0.174 HD
ATOM     56 1HH2 ARG     9      63.094  41.988  44.740  1.00 99.99     0.174 HD
ATOM     57  HE  ARG     9      64.695  44.837  45.946  1.00 99.99     0.178 HD
ENDBRANCH  48  49
ENDBRANCH  47  48
ENDBRANCH  46  47
ENDBRANCH  45  46
BRANCH  45  58
ATOM     58  C   ARG     9      63.234  45.959  50.760  1.00  0.00     0.206 C 
ATOM     59  OXT ARG     9      62.168  45.989  51.414  1.00 99.99    -0.646 OA
ATOM     60  O   ARG     9      64.276  46.581  51.053  1.00 99.99    -0.646 OA
ENDBRANCH  45  58
ENDBRANCH  42  45
ENDBRANCH  40  41
ENDBRANCH  38  40
ENDBRANCH  35  36
BRANCH  35  61
ATOM     61  CB  PHE     7      58.442  41.127  44.379  1.00  0.00     0.056 C 
BRANCH  61  62
ATOM     62  CG  PHE     7      58.317  41.026  42.859  1.00  0.00    -0.044 A 
ATOM     63  CD2 PHE     7      57.796  39.880  42.266  1.00  0.00     0.008 A 
ATOM     64  CE2 PHE     7      57.663  39.816  40.885  1.00  0.00     0.001 A 
ATOM     65  CZ  PHE     7      58.042  40.897  40.098  1.00  0.00     0.000 A 
ATOM     66  CE1 PHE     7      58.568  42.037  40.691  1.00  0.00     0.001 A 
ATOM     67  CD1 PHE     7      58.703  42.103  42.071  1.00  0.00     0.008 A 
ENDBRANCH  61  62
ENDBRANCH  35  61
ENDBRANCH  33  35
ENDBRANCH  30  31
ENDBRANCH  27  30
ENDBRANCH  25  26
ENDBRANCH  22  25
ENDBRANCH  20  21
ENDBRANCH  18  20
ENDBRANCH  15  16
BRANCH  15  68
ATOM     68  CB  VAL     3      56.789  40.763  52.511  1.00  0.00     0.029 C 
ATOM     69  CG1 VAL     3      55.631  40.976  53.496  1.00  0.00     0.002 C 
ATOM     70  CG2 VAL     3      56.365  39.680  51.512  1.00  0.00     0.002 C 
ENDBRANCH  15  68
ENDBRANCH  13  15
ENDBRANCH  10  11
ENDBRANCH   7  10
ENDBRANCH   5   6
BRANCH   5  71
ATOM     71  CB  VAL     1      54.964  38.084  47.563  1.00  0.00     0.037 C 
ATOM     72  CG2 VAL     1      55.432  36.664  47.910  1.00  0.00     0.002 C 
ATOM     73  CG1 VAL     1      53.568  37.969  46.934  1.00  0.00     0.002 C 
ENDBRANCH   5  71
ENDBRANCH   1   5
TORSDOF 26
ENDMDL
MODEL 8
REMARK VINA RESULT:      -5.1      2.817      7.090
REMARK  26 active torsions:
REMARK  status: ('A' for Active; 'I' for Inactive)
REMARK    1  A    between atoms: N_1  and  CA_2 
REMARK    2  A    between atoms: CA_2  and  C_3 
REMARK    3  A    between atoms: CA_2  and  CB_5 
REMARK       I    between atoms: C_3  and  N_11 
REMARK    4  A    between atoms: N_11  and  CA_12 
REMARK    5  A    between atoms: CA_12  and  C_13 
REMARK       I    between atoms: C_13  and  N_16 
REMARK    6  A    between atoms: N_16  and  CA_17 
REMARK    7  A    between atoms: CA_17  and  C_18 
REMARK    8  A    between atoms: CA_17  and  CB_20 
REMARK       I    between atoms: C_18  and  N_24 
REMARK    9  A    between atoms: N_24  and  CA_25 
REMARK   10  A    between atoms: CA_25  and  C_26 
REMARK       I    between atoms: C_26  and  N_29 
REMARK   11  A    between atoms: N_29  and  CA_30 
REMARK   12  A    between atoms: CA_30  and  C_31 
REMARK       I    between atoms: C_31  and  N_34 
REMARK   13  A    between atoms: N_34  and  CA_35 
REMARK   14  A    between atoms: CA_35  and  C_36 
REMARK       I    between atoms: C_36  and  N_39 
REMARK   15  A    between atoms: N_39  and  CA_40 
REMARK   16  A    between atoms: CA_40  and  C_41 
REMARK   17  A    between atoms: CA_40  and  CB_43 
REMARK       I    between atoms: C_41  and  N_51 
REMARK   18  A    between atoms: CB_43  and  CG_44 
REMARK   19  A    between atoms: N_51  and  CA_52 
REMARK   20  A    between atoms: CA_52  and  C_53 
REMARK       I    between atoms: C_53  and  N_56 
REMARK   21  A    between atoms: N_56  and  CA_57 
REMARK   22  A    between atoms: CA_57  and  CB_60 
REMARK   23  A    between atoms: CA_57  and  C_58 
REMARK   24  A    between atoms: CB_60  and  CG_61 
REMARK   25  A    between atoms: CG_61  and  CD_62 
REMARK   26  A    between atoms: CD_62  and  NE_63 
REMARK       I    between atoms: NE_63  and  CZ_64 
REMARK       I    between atoms: CZ_64  and  NH1_65 
ROOT
ATOM      1  N   VAL     1      60.983  35.254  45.141  1.00  0.00    -0.058 N 
ATOM      2  H1  VAL     1      60.071  35.258  45.552  1.00 99.99     0.276 HD
ATOM      3  H2  VAL     1      60.932  34.790  44.273  1.00 99.99     0.276 HD
ATOM      4  H3  VAL     1      61.597  34.716  45.693  1.00 99.99     0.276 HD
ENDROOT
BRANCH   1   5
ATOM      5  CA  VAL     1      61.430  36.654  45.003  1.00  0.00     0.255 C 
BRANCH   5   6
ATOM      6  C   VAL     1      60.202  37.495  44.586  1.00  0.00     0.259 C 
ATOM      7  N   GLY     2      60.079  38.679  45.197  1.00  0.00    -0.336 N 
ATOM      8  H   GLY     2      60.727  39.015  45.894  1.00 99.99     0.164 HD
ATOM      9  O   VAL     1      59.304  36.982  43.913  1.00  0.00    -0.271 OA
BRANCH   7  10
ATOM     10  CA  GLY     2      58.972  39.601  44.885  1.00  0.00     0.189 C 
BRANCH  10  11
ATOM     11  C   GLY     2      57.978  39.780  46.037  1.00  0.00     0.253 C 
ATOM     12  O   GLY     2      57.105  40.651  46.015  1.00  0.00    -0.270 OA
ATOM     13  N   VAL     3      58.264  39.007  47.079  1.00  0.00    -0.337 N 
ATOM     14  H   VAL     3      58.945  38.278  47.000  1.00 99.99     0.164 HD
BRANCH  13  15
ATOM     15  CA  VAL     3      57.532  39.011  48.366  1.00  0.00     0.159 C 
BRANCH  15  16
ATOM     16  C   VAL     3      58.478  38.832  49.573  1.00  0.00     0.251 C 
ATOM     17  O   VAL     3      58.125  39.244  50.672  1.00  0.00    -0.271 OA
ATOM     18  N   GLY     4      59.709  38.355  49.295  1.00  0.00    -0.336 N 
ATOM     19  H   GLY     4      60.076  38.373  48.363  1.00 99.99     0.164 HD
BRANCH  18  20
ATOM     20  CA  GLY     4      60.730  37.914  50.278  1.00  0.00     0.189 C 
BRANCH  20  21
ATOM     21  C   GLY     4      61.545  39.020  50.970  1.00  0.00     0.253 C 
ATOM     22  N   GLY     5      61.062  40.251  50.780  1.00  0.00    -0.336 N 
ATOM     23  H   GLY     5      60.271  40.439  50.184  1.00 99.99     0.164 HD
ATOM     24  O   GLY     4      62.521  38.747  51.665  1.00  0.00    -0.270 OA
BRANCH  22  25
ATOM     25  CA  GLY     5      61.640  41.444  51.432  1.00  0.00     0.189 C 
BRANCH  25  26
ATOM     26  C   GLY     5      60.554  42.285  52.121  1.00  0.00     0.253 C 
ATOM     27  N   GLY     6      59.342  41.715  52.168  1.00  0.00    -0.336 N 
ATOM     28  H   GLY     6      59.115  40.875  51.659  1.00 99.99     0.164 HD
ATOM     29  O   GLY     5      60.820  43.402  52.559  1.00  0.00    -0.270 OA
BRANCH  27  30
ATOM     30  CA  GLY     6      58.164  42.350  52.803  1.00  0.00     0.189 C 
BRANCH  30  31
ATOM     31  C   GLY     6      57.067  42.706  51.782  1.00  0.00     0.253 C 
ATOM     32  O   GLY     6      56.304  43.646  51.983  1.00  0.00    -0.270 OA
ATOM     33  N   PHE     7      57.137  42.031  50.637  1.00  0.00    -0.337 N 
ATOM     34  H   PHE     7      57.883  41.386  50.463  1.00 99.99     0.164 HD
BRANCH  33  35
ATOM     35  CA  PHE     7      56.134  42.135  49.561  1.00  0.00     0.164 C 
BRANCH  35  36
ATOM     36  C   PHE     7      56.514  43.244  48.567  1.00  0.00     0.251 C 
ATOM     37  O   PHE     7      55.946  44.332  48.586  1.00  0.00    -0.271 OA
ATOM     38  N   GLY     8      57.602  42.975  47.829  1.00  0.00    -0.336 N 
ATOM     39  H   GLY     8      58.096  42.097  47.884  1.00 99.99     0.164 HD
BRANCH  38  40
ATOM     40  CA  GLY     8      58.071  43.912  46.786  1.00  0.00     0.189 C 
BRANCH  40  41
ATOM     41  C   GLY     8      59.332  43.430  46.060  1.00  0.00     0.253 C 
ATOM     42  N   ARG     9      60.308  43.013  46.859  1.00  0.00    -0.336 N 
ATOM     43  H   ARG     9      60.220  43.050  47.856  1.00 99.99     0.164 HD
ATOM     44  O   GLY     8      59.407  43.429  44.834  1.00  0.00    -0.270 OA
BRANCH  42  45
ATOM     45  CA  ARG     9      61.569  42.430  46.349  1.00  0.00     0.168 C 
BRANCH  45  46
ATOM     46  CB  ARG     9      62.771  43.223  46.881  1.00  0.00     0.035 C 
BRANCH  46  47
ATOM     47  CG  ARG     9      62.905  43.158  48.405  1.00  0.00     0.027 C 
BRANCH  47  48
ATOM     48  CD  ARG     9      62.829  44.559  49.014  1.00  0.00     0.116 C 
BRANCH  48  49
ATOM     49  NE  ARG     9      64.123  44.919  49.625  1.00  0.00    -0.212 N 
ATOM     50  CZ  ARG     9      64.660  46.140  49.687  1.00  0.00     0.666 C 
ATOM     51  NH1 ARG     9      64.059  47.203  49.166  1.00  0.00    -0.235 N 
ATOM     52  NH2 ARG     9      65.826  46.329  50.291  1.00  0.00    -0.235 N 
ATOM     53 2HH1 ARG     9      63.179  47.089  48.713  1.00 99.99     0.174 HD
ATOM     54 1HH1 ARG     9      64.486  48.105  49.227  1.00 99.99     0.174 HD
ATOM     55 2HH2 ARG     9      66.316  45.565  50.706  1.00 99.99     0.174 HD
ATOM     56 1HH2 ARG     9      66.215  47.248  50.328  1.00 99.99     0.174 HD
ATOM     57  HE  ARG     9      64.630  44.160  50.028  1.00 99.99     0.178 HD
ENDBRANCH  48  49
ENDBRANCH  47  48
ENDBRANCH  46  47
ENDBRANCH  45  46
BRANCH  45  58
ATOM     58  C   ARG     9      61.699  40.955  46.776  1.00  0.00     0.206 C 
ATOM     59  OXT ARG     9      62.673  40.333  46.294  1.00 99.99    -0.646 OA
ATOM     60  O   ARG     9      60.973  40.546  47.705  1.00 99.99    -0.646 OA
ENDBRANCH  45  58
ENDBRANCH  42  45
ENDBRANCH  40  41
ENDBRANCH  38  40
ENDBRANCH  35  36
BRANCH  35  61
ATOM     61  CB  PHE     7      54.736  42.391  50.144  1.00  0.00     0.056 C 
BRANCH  61  62
ATOM     62  CG  PHE     7      53.945  41.088  50.263  1.00  0.00    -0.044 A 
ATOM     63  CD2 PHE     7      54.354  40.088  51.140  1.00  0.00     0.008 A 
ATOM     64  CE2 PHE     7      53.607  38.922  51.255  1.00  0.00     0.001 A 
ATOM     65  CZ  PHE     7      52.450  38.759  50.502  1.00  0.00     0.000 A 
ATOM     66  CE1 PHE     7      52.048  39.755  49.622  1.00  0.00     0.001 A 
ATOM     67  CD1 PHE     7      52.793  40.920  49.505  1.00  0.00     0.008 A 
ENDBRANCH  61  62
ENDBRANCH  35  61
ENDBRANCH  33  35
ENDBRANCH  30  31
ENDBRANCH  27  30
ENDBRANCH  25  26
ENDBRANCH  22  25
ENDBRANCH  20  21
ENDBRANCH  18  20
ENDBRANCH  15  16
BRANCH  15  68
ATOM     68  CB  VAL     3      56.430  37.925  48.344  1.00  0.00     0.029 C 
ATOM     69  CG1 VAL     3      55.083  38.450  47.831  1.00  0.00     0.002 C 
ATOM     70  CG2 VAL     3      56.829  36.724  47.479  1.00  0.00     0.002 C 
ENDBRANCH  15  68
ENDBRANCH  13  15
ENDBRANCH  10  11
ENDBRANCH   7  10
ENDBRANCH   5   6
BRANCH   5  71
ATOM     71  CB  VAL     1      62.590  36.772  43.982  1.00  0.00     0.037 C 
ATOM     72  CG2 VAL     1      63.934  36.944  44.701  1.00  0.00     0.002 C 
ATOM     73  CG1 VAL     1      62.438  37.942  43.001  1.00  0.00     0.002 C 
ENDBRANCH   5  71
ENDBRANCH   1   5
TORSDOF 26
ENDMDL
MODEL 9
REMARK VINA RESULT:      -5.1      2.510      8.286
REMARK  26 active torsions:
REMARK  status: ('A' for Active; 'I' for Inactive)
REMARK    1  A    between atoms: N_1  and  CA_2 
REMARK    2  A    between atoms: CA_2  and  C_3 
REMARK    3  A    between atoms: CA_2  and  CB_5 
REMARK       I    between atoms: C_3  and  N_11 
REMARK    4  A    between atoms: N_11  and  CA_12 
REMARK    5  A    between atoms: CA_12  and  C_13 
REMARK       I    between atoms: C_13  and  N_16 
REMARK    6  A    between atoms: N_16  and  CA_17 
REMARK    7  A    between atoms: CA_17  and  C_18 
REMARK    8  A    between atoms: CA_17  and  CB_20 
REMARK       I    between atoms: C_18  and  N_24 
REMARK    9  A    between atoms: N_24  and  CA_25 
REMARK   10  A    between atoms: CA_25  and  C_26 
REMARK       I    between atoms: C_26  and  N_29 
REMARK   11  A    between atoms: N_29  and  CA_30 
REMARK   12  A    between atoms: CA_30  and  C_31 
REMARK       I    between atoms: C_31  and  N_34 
REMARK   13  A    between atoms: N_34  and  CA_35 
REMARK   14  A    between atoms: CA_35  and  C_36 
REMARK       I    between atoms: C_36  and  N_39 
REMARK   15  A    between atoms: N_39  and  CA_40 
REMARK   16  A    between atoms: CA_40  and  C_41 
REMARK   17  A    between atoms: CA_40  and  CB_43 
REMARK       I    between atoms: C_41  and  N_51 
REMARK   18  A    between atoms: CB_43  and  CG_44 
REMARK   19  A    between atoms: N_51  and  CA_52 
REMARK   20  A    between atoms: CA_52  and  C_53 
REMARK       I    between atoms: C_53  and  N_56 
REMARK   21  A    between atoms: N_56  and  CA_57 
REMARK   22  A    between atoms: CA_57  and  CB_60 
REMARK   23  A    between atoms: CA_57  and  C_58 
REMARK   24  A    between atoms: CB_60  and  CG_61 
REMARK   25  A    between atoms: CG_61  and  CD_62 
REMARK   26  A    between atoms: CD_62  and  NE_63 
REMARK       I    between atoms: NE_63  and  CZ_64 
REMARK       I    between atoms: CZ_64  and  NH1_65 
ROOT
ATOM      1  N   VAL     1      54.999  38.986  49.041  1.00  0.00    -0.058 N 
ATOM      2  H1  VAL     1      55.752  39.192  49.666  1.00 99.99     0.276 HD
ATOM      3  H2  VAL     1      54.657  38.086  49.249  1.00 99.99     0.276 HD
ATOM      4  H3  VAL     1      55.336  38.934  48.116  1.00 99.99     0.276 HD
ENDROOT
BRANCH   1   5
ATOM      5  CA  VAL     1      53.967  40.030  49.204  1.00  0.00     0.255 C 
BRANCH   5   6
ATOM      6  C   VAL     1      54.696  41.360  49.500  1.00  0.00     0.259 C 
ATOM      7  N   GLY     2      54.714  41.736  50.784  1.00  0.00    -0.336 N 
ATOM      8  H   GLY     2      54.278  41.206  51.524  1.00 99.99     0.164 HD
ATOM      9  O   VAL     1      55.021  42.105  48.570  1.00  0.00    -0.271 OA
BRANCH   7  10
ATOM     10  CA  GLY     2      55.393  42.969  51.222  1.00  0.00     0.189 C 
BRANCH  10  11
ATOM     11  C   GLY     2      56.509  42.726  52.243  1.00  0.00     0.253 C 
ATOM     12  O   GLY     2      57.434  43.528  52.401  1.00  0.00    -0.270 OA
ATOM     13  N   VAL     3      56.433  41.523  52.802  1.00  0.00    -0.337 N 
ATOM     14  H   VAL     3      55.620  40.954  52.676  1.00 99.99     0.164 HD
BRANCH  13  15
ATOM     15  CA  VAL     3      57.411  40.972  53.768  1.00  0.00     0.159 C 
BRANCH  15  16
ATOM     16  C   VAL     3      58.761  40.636  53.099  1.00  0.00     0.251 C 
ATOM     17  O   VAL     3      58.970  39.488  52.723  1.00  0.00    -0.271 OA
ATOM     18  N   GLY     4      59.686  41.618  53.106  1.00  0.00    -0.336 N 
ATOM     19  H   GLY     4      59.611  42.399  53.728  1.00 99.99     0.164 HD
BRANCH  18  20
ATOM     20  CA  GLY     4      60.977  41.623  52.373  1.00  0.00     0.189 C 
BRANCH  20  21
ATOM     21  C   GLY     4      61.097  42.599  51.191  1.00  0.00     0.253 C 
ATOM     22  N   GLY     5      60.495  42.177  50.075  1.00  0.00    -0.336 N 
ATOM     23  H   GLY     5      60.058  41.272  50.001  1.00 99.99     0.164 HD
ATOM     24  O   GLY     4      61.664  43.682  51.318  1.00  0.00    -0.270 OA
BRANCH  22  25
ATOM     25  CA  GLY     5      60.412  43.004  48.853  1.00  0.00     0.189 C 
BRANCH  25  26
ATOM     26  C   GLY     5      59.113  42.727  48.080  1.00  0.00     0.253 C 
ATOM     27  N   GLY     6      59.276  42.105  46.904  1.00  0.00    -0.336 N 
ATOM     28  H   GLY     6      60.181  41.968  46.481  1.00 99.99     0.164 HD
ATOM     29  O   GLY     5      58.030  43.090  48.536  1.00  0.00    -0.270 OA
BRANCH  27  30
ATOM     30  CA  GLY     6      58.153  41.731  46.014  1.00  0.00     0.189 C 
BRANCH  30  31
ATOM     31  C   GLY     6      58.563  41.702  44.530  1.00  0.00     0.253 C 
ATOM     32  O   GLY     6      57.785  41.298  43.671  1.00  0.00    -0.270 OA
ATOM     33  N   PHE     7      59.727  42.290  44.267  1.00  0.00    -0.337 N 
ATOM     34  H   PHE     7      60.248  42.749  44.989  1.00 99.99     0.164 HD
BRANCH  33  35
ATOM     35  CA  PHE     7      60.364  42.292  42.936  1.00  0.00     0.164 C 
BRANCH  35  36
ATOM     36  C   PHE     7      61.894  42.224  43.064  1.00  0.00     0.251 C 
ATOM     37  O   PHE     7      62.582  41.744  42.167  1.00  0.00    -0.271 OA
ATOM     38  N   GLY     8      62.389  42.875  44.127  1.00  0.00    -0.336 N 
ATOM     39  H   GLY     8      61.803  43.326  44.814  1.00 99.99     0.164 HD
BRANCH  38  40
ATOM     40  CA  GLY     8      63.838  42.862  44.427  1.00  0.00     0.189 C 
BRANCH  40  41
ATOM     41  C   GLY     8      64.242  41.758  45.410  1.00  0.00     0.253 C 
ATOM     42  N   ARG     9      63.601  41.787  46.574  1.00  0.00    -0.336 N 
ATOM     43  H   ARG     9      62.933  42.503  46.785  1.00 99.99     0.164 HD
ATOM     44  O   GLY     8      65.088  40.917  45.120  1.00  0.00    -0.270 OA
BRANCH  42  45
ATOM     45  CA  ARG     9      63.788  40.757  47.620  1.00  0.00     0.168 C 
BRANCH  45  46
ATOM     46  CB  ARG     9      64.385  41.390  48.885  1.00  0.00     0.035 C 
BRANCH  46  47
ATOM     47  CG  ARG     9      65.916  41.345  48.911  1.00  0.00     0.027 C 
BRANCH  47  48
ATOM     48  CD  ARG     9      66.504  42.590  48.245  1.00  0.00     0.116 C 
BRANCH  48  49
ATOM     49  NE  ARG     9      65.785  43.796  48.700  1.00  0.00    -0.212 N 
ATOM     50  CZ  ARG     9      65.617  44.928  48.010  1.00  0.00     0.666 C 
ATOM     51  NH1 ARG     9      66.117  45.092  46.791  1.00  0.00    -0.235 N 
ATOM     52  NH2 ARG     9      64.925  45.932  48.530  1.00  0.00    -0.235 N 
ATOM     53 2HH1 ARG     9      66.635  44.350  46.375  1.00 99.99     0.174 HD
ATOM     54 1HH1 ARG     9      65.975  45.950  46.299  1.00 99.99     0.174 HD
ATOM     55 2HH2 ARG     9      64.521  45.857  49.439  1.00 99.99     0.174 HD
ATOM     56 1HH2 ARG     9      64.808  46.772  48.001  1.00 99.99     0.174 HD
ATOM     57  HE  ARG     9      65.392  43.740  49.615  1.00 99.99     0.178 HD
ENDBRANCH  48  49
ENDBRANCH  47  48
ENDBRANCH  46  47
ENDBRANCH  45  46
BRANCH  45  58
ATOM     58  C   ARG     9      62.446  40.084  47.968  1.00  0.00     0.206 C 
ATOM     59  OXT ARG     9      62.234  39.893  49.187  1.00 99.99    -0.646 OA
ATOM     60  O   ARG     9      61.596  39.966  47.062  1.00 99.99    -0.646 OA
ENDBRANCH  45  58
ENDBRANCH  42  45
ENDBRANCH  40  41
ENDBRANCH  38  40
ENDBRANCH  35  36
BRANCH  35  61
ATOM     61  CB  PHE     7      59.944  43.533  42.135  1.00  0.00     0.056 C 
BRANCH  61  62
ATOM     62  CG  PHE     7      59.542  43.156  40.710  1.00  0.00    -0.044 A 
ATOM     63  CD2 PHE     7      59.532  44.112  39.699  1.00  0.00     0.008 A 
ATOM     64  CE2 PHE     7      59.190  43.744  38.404  1.00  0.00     0.001 A 
ATOM     65  CZ  PHE     7      58.866  42.423  38.117  1.00  0.00     0.000 A 
ATOM     66  CE1 PHE     7      58.869  41.472  39.128  1.00  0.00     0.001 A 
ATOM     67  CD1 PHE     7      59.209  41.837  40.424  1.00  0.00     0.008 A 
ENDBRANCH  61  62
ENDBRANCH  35  61
ENDBRANCH  33  35
ENDBRANCH  30  31
ENDBRANCH  27  30
ENDBRANCH  25  26
ENDBRANCH  22  25
ENDBRANCH  20  21
ENDBRANCH  18  20
ENDBRANCH  15  16
BRANCH  15  68
ATOM     68  CB  VAL     3      56.806  39.737  54.476  1.00  0.00     0.029 C 
ATOM     69  CG1 VAL     3      57.098  39.708  55.982  1.00  0.00     0.002 C 
ATOM     70  CG2 VAL     3      55.286  39.658  54.289  1.00  0.00     0.002 C 
ENDBRANCH  15  68
ENDBRANCH  13  15
ENDBRANCH  10  11
ENDBRANCH   7  10
ENDBRANCH   5   6
BRANCH   5  71
ATOM     71  CB  VAL     1      52.965  39.653  50.325  1.00  0.00     0.037 C 
ATOM     72  CG2 VAL     1      52.881  38.131  50.492  1.00  0.00     0.002 C 
ATOM     73  CG1 VAL     1      51.540  40.170  50.081  1.00  0.00     0.002 C 
ENDBRANCH   5  71
ENDBRANCH   1   5
TORSDOF 26
ENDMDL
