MODEL 1
REMARK VINA RESULT:      -4.5      0.000      0.000
REMARK WARNING: 32 MAX_TORS EXCEEDED!!!
REMARK  59 active torsions:
REMARK  status: ('A' for Active; 'I' for Inactive)
REMARK    1  A    between atoms: N_1  and  CA_2 
REMARK    2  A    between atoms: CA_2  and  CB_5 
REMARK    3  A    between atoms: CA_2  and  C_3 
REMARK       I    between atoms: C_3  and  N_12 
REMARK    4  A    between atoms: CB_5  and  CG1_6 
REMARK    5  A    between atoms: N_12  and  CA_13 
REMARK    6  A    between atoms: CA_13  and  C_14 
REMARK    7  A    between atoms: CA_13  and  CB_16 
REMARK       I    between atoms: C_14  and  N_21 
REMARK    8  A    between atoms: CB_16  and  CG_17 
REMARK    9  A    between atoms: N_21  and  CA_22 
REMARK   10  A    between atoms: CA_22  and  C_23 
REMARK       I    between atoms: C_23  and  N_26 
REMARK   11  A    between atoms: N_26  and  CA_27 
REMARK   12  A    between atoms: CA_27  and  C_28 
REMARK   13  A    between atoms: CA_27  and  CB_30 
REMARK       I    between atoms: C_28  and  N_39 
REMARK   14  A    between atoms: CB_30  and  CG_31 
REMARK   15  A    between atoms: CG_31  and  CD_32 
REMARK   16  A    between atoms: CD_32  and  CE_33 
REMARK   17  A    between atoms: CE_33  and  NZ_34 
REMARK   18  A    between atoms: N_39  and  CA_40 
REMARK   19  A    between atoms: CA_40  and  CB_43 
REMARK   20  A    between atoms: CA_40  and  C_41 
REMARK       I    between atoms: C_41  and  N_48 
REMARK   21  A    between atoms: CB_43  and  CG_44 
REMARK   22  A    between atoms: N_48  and  CA_49 
REMARK   23  A    between atoms: CA_49  and  C_50 
REMARK   24  A    between atoms: CA_49  and  CB_52 
REMARK       I    between atoms: C_50  and  N_57 
REMARK   25  A    between atoms: CB_52  and  CG_53 
REMARK   26  A    between atoms: N_57  and  CA_58 
REMARK   27  A    between atoms: CA_58  and  C_59 
REMARK   28  A    between atoms: CA_58  and  CB_61 
REMARK       I    between atoms: C_59  and  N_65 
REMARK   29  A    between atoms: CB_61  and  OG_62 
REMARK   30  A    between atoms: N_65  and  CA_66 
REMARK   31  A    between atoms: CA_66  and  C_67 
REMARK   32  A    between atoms: CA_66  and  CB_69 
REMARK       I    between atoms: C_67  and  N_74 
REMARK   33  A    between atoms: CB_69  and  OG1_70 
REMARK   34  A    between atoms: N_74  and  CA_75 
REMARK   35  A    between atoms: CA_75  and  C_76 
REMARK       I    between atoms: C_76  and  N_80 
REMARK   36  A    between atoms: N_80  and  CA_81 
REMARK   37  A    between atoms: CA_81  and  C_82 
REMARK       I    between atoms: C_82  and  N_86 
REMARK   38  A    between atoms: N_86  and  CA_87 
REMARK   39  A    between atoms: CA_87  and  C_88 
REMARK       I    between atoms: C_88  and  N_91 
REMARK   40  A    between atoms: N_91  and  CA_92 
REMARK   41  A    between atoms: CA_92  and  C_93 
REMARK   42  A    between atoms: CA_92  and  CB_95 
REMARK       I    between atoms: C_93  and  N_100 
REMARK   43  A    between atoms: CB_95  and  CG_96 
REMARK   44  A    between atoms: N_100  and  CA_101 
REMARK   45  A    between atoms: CA_101  and  C_102 
REMARK   46  A    between atoms: CA_101  and  CB_104 
REMARK       I    between atoms: C_102  and  N_109 
REMARK   47  A    between atoms: CB_104  and  CG_105 
REMARK   48  A    between atoms: N_109  and  CA_110 
REMARK   49  A    between atoms: CA_110  and  C_111 
REMARK   50  A    between atoms: CA_110  and  CB_113 
REMARK       I    between atoms: C_111  and  N_117 
REMARK   51  A    between atoms: CB_113  and  OG_114 
REMARK   52  A    between atoms: N_117  and  CA_118 
REMARK   53  A    between atoms: CA_118  and  CB_121 
REMARK   54  A    between atoms: CA_118  and  C_119 
REMARK       I    between atoms: C_119  and  N_128 
REMARK   55  A    between atoms: CB_121  and  CG_122 
REMARK       I    between atoms: CG_122  and  ND2_124 
REMARK   56  A    between atoms: N_128  and  CA_129 
REMARK   57  A    between atoms: CA_129  and  CB_132 
REMARK   58  A    between atoms: CA_129  and  C_130 
REMARK   59  A    between atoms: CB_132  and  CG_133 
ROOT
ATOM      1  N   ILE     1      68.878  43.807  59.860  1.00  0.00    -0.058 N 
ATOM      2  H1  ILE     1      69.025  42.824  59.967  1.00 99.99     0.276 HD
ATOM      3  H2  ILE     1      69.522  44.291  60.451  1.00 99.99     0.276 HD
ATOM      4  H3  ILE     1      67.985  44.066  60.222  1.00 99.99     0.276 HD
ENDROOT
BRANCH   1   5
ATOM      5  CA  ILE     1      69.033  44.222  58.434  1.00  0.00     0.255 C 
BRANCH   5   6
ATOM      6  CB  ILE     1      70.476  44.001  57.926  1.00  0.00     0.037 C 
ATOM      7  CG2 ILE     1      70.531  42.786  56.990  1.00  0.00     0.002 C 
BRANCH   6   8
ATOM      8  CG1 ILE     1      71.087  45.285  57.332  1.00  0.00     0.002 C 
ATOM      9  CD  ILE     1      70.227  46.541  57.516  1.00  0.00     0.000 C 
ENDBRANCH   6   8
ENDBRANCH   5   6
BRANCH   5  10
ATOM     10  C   ILE     1      68.041  43.638  57.385  1.00  0.00     0.259 C 
ATOM     11  O   ILE     1      67.795  44.257  56.346  1.00  0.00    -0.271 OA
ATOM     12  N   LEU     2      67.307  42.583  57.755  1.00  0.00    -0.338 N 
ATOM     13  H   LEU     2      67.272  42.268  58.701  1.00 99.99     0.164 HD
BRANCH  12  14
ATOM     14  CA  LEU     2      66.506  41.782  56.797  1.00  0.00     0.159 C 
BRANCH  14  15
ATOM     15  C   LEU     2      64.989  42.071  56.813  1.00  0.00     0.251 C 
ATOM     16  N   GLY     3      64.224  41.255  56.069  1.00  0.00    -0.336 N 
ATOM     17  H   GLY     3      64.602  40.635  55.375  1.00 99.99     0.164 HD
ATOM     18  O   LEU     2      64.546  42.892  57.615  1.00  0.00    -0.271 OA
BRANCH  16  19
ATOM     19  CA  GLY     3      62.743  41.304  56.043  1.00  0.00     0.189 C 
BRANCH  19  20
ATOM     20  C   GLY     3      62.078  40.209  56.894  1.00  0.00     0.253 C 
ATOM     21  N   LYS     4      61.148  40.615  57.763  1.00  0.00    -0.337 N 
ATOM     22  H   LYS     4      60.941  41.581  57.901  1.00 99.99     0.164 HD
ATOM     23  O   GLY     3      62.268  39.030  56.611  1.00  0.00    -0.270 OA
BRANCH  21  24
ATOM     24  CA  LYS     4      60.385  39.687  58.629  1.00  0.00     0.159 C 
BRANCH  24  25
ATOM     25  C   LYS     4      59.027  39.282  58.020  1.00  0.00     0.251 C 
ATOM     26  O   LYS     4      58.690  38.101  58.040  1.00  0.00    -0.271 OA
ATOM     27  N   LEU     5      58.355  40.218  57.347  1.00  0.00    -0.338 N 
ATOM     28  H   LEU     5      58.686  41.161  57.265  1.00 99.99     0.164 HD
BRANCH  27  29
ATOM     29  CA  LEU     5      57.074  39.942  56.665  1.00  0.00     0.159 C 
BRANCH  29  30
ATOM     30  CB  LEU     5      55.941  40.708  57.363  1.00  0.00     0.032 C 
BRANCH  30  31
ATOM     31  CG  LEU     5      55.044  39.829  58.248  1.00  0.00     0.002 C 
ATOM     32  CD1 LEU     5      55.116  38.349  57.856  1.00  0.00     0.000 C 
ATOM     33  CD2 LEU     5      55.435  40.013  59.715  1.00  0.00     0.000 C 
ENDBRANCH  30  31
ENDBRANCH  29  30
BRANCH  29  34
ATOM     34  C   LEU     5      57.141  40.258  55.159  1.00  0.00     0.251 C 
ATOM     35  N   LEU     6      55.990  40.581  54.565  1.00  0.00    -0.338 N 
ATOM     36  H   LEU     6      55.111  40.520  55.048  1.00 99.99     0.164 HD
ATOM     37  O   LEU     5      58.239  40.382  54.619  1.00  0.00    -0.271 OA
BRANCH  35  38
ATOM     38  CA  LEU     6      55.900  41.031  53.161  1.00  0.00     0.159 C 
BRANCH  38  39
ATOM     39  C   LEU     6      55.344  39.949  52.219  1.00  0.00     0.251 C 
ATOM     40  N   SER     7      54.804  40.370  51.073  1.00  0.00    -0.336 N 
ATOM     41  H   SER     7      54.604  41.341  50.908  1.00 99.99     0.164 HD
ATOM     42  O   LEU     6      55.593  38.770  52.457  1.00  0.00    -0.271 OA
BRANCH  40  43
ATOM     43  CA  SER     7      54.309  39.462  50.013  1.00  0.00     0.189 C 
BRANCH  43  44
ATOM     44  C   SER     7      55.343  39.248  48.897  1.00  0.00     0.254 C 
ATOM     45  O   SER     7      56.109  38.288  48.961  1.00  0.00    -0.270 OA
ATOM     46  N   THR     8      55.451  40.210  47.975  1.00  0.00    -0.336 N 
ATOM     47  H   THR     8      54.802  40.977  47.924  1.00 99.99     0.164 HD
BRANCH  46  48
ATOM     48  CA  THR     8      56.440  40.164  46.872  1.00  0.00     0.186 C 
BRANCH  48  49
ATOM     49  C   THR     8      57.185  41.504  46.738  1.00  0.00     0.253 C 
ATOM     50  N   ALA     9      58.468  41.447  46.375  1.00  0.00    -0.337 N 
ATOM     51  H   ALA     9      58.948  40.573  46.248  1.00 99.99     0.164 HD
ATOM     52  O   THR     8      56.567  42.556  46.885  1.00  0.00    -0.270 OA
BRANCH  50  53
ATOM     53  CA  ALA     9      59.309  42.648  46.179  1.00  0.00     0.159 C 
ATOM     54  CB  ALA     9      58.667  43.574  45.142  1.00  0.00     0.034 C 
BRANCH  53  55
ATOM     55  C   ALA     9      59.575  43.399  47.495  1.00  0.00     0.251 C 
ATOM     56  O   ALA     9      58.972  44.446  47.726  1.00  0.00    -0.271 OA
ATOM     57  N   ALA    10      60.628  42.986  48.207  1.00  0.00    -0.338 N 
ATOM     58  H   ALA    10      61.157  42.172  47.945  1.00 99.99     0.164 HD
BRANCH  57  59
ATOM     59  CA  ALA    10      61.087  43.641  49.449  1.00  0.00     0.159 C 
ATOM     60  CB  ALA    10      61.438  42.583  50.500  1.00  0.00     0.034 C 
BRANCH  59  61
ATOM     61  C   ALA    10      62.287  44.569  49.198  1.00  0.00     0.251 C 
ATOM     62  N   GLY    11      63.369  43.998  48.641  1.00  0.00    -0.336 N 
ATOM     63  H   GLY    11      63.465  43.000  48.509  1.00 99.99     0.164 HD
ATOM     64  O   ALA    10      62.131  45.784  49.282  1.00  0.00    -0.271 OA
BRANCH  62  65
ATOM     65  CA  GLY    11      64.577  44.754  48.239  1.00  0.00     0.189 C 
BRANCH  65  66
ATOM     66  C   GLY    11      65.182  44.231  46.927  1.00  0.00     0.253 C 
ATOM     67  O   GLY    11      65.879  44.965  46.230  1.00  0.00    -0.270 OA
ATOM     68  N   LEU    12      64.745  43.040  46.520  1.00  0.00    -0.337 N 
ATOM     69  H   LEU    12      64.114  42.490  47.078  1.00 99.99     0.164 HD
BRANCH  68  70
ATOM     70  CA  LEU    12      65.173  42.406  45.257  1.00  0.00     0.159 C 
BRANCH  70  71
ATOM     71  C   LEU    12      63.979  42.016  44.359  1.00  0.00     0.251 C 
ATOM     72  O   LEU    12      63.570  42.812  43.515  1.00  0.00    -0.271 OA
ATOM     73  N   LEU    13      63.317  40.909  44.701  1.00  0.00    -0.338 N 
ATOM     74  H   LEU    13      63.613  40.336  45.472  1.00 99.99     0.164 HD
BRANCH  73  75
ATOM     75  CA  LEU    13      62.127  40.401  43.982  1.00  0.00     0.159 C 
BRANCH  75  76
ATOM     76  C   LEU    13      61.083  39.662  44.841  1.00  0.00     0.251 C 
ATOM     77  N   SER    14      61.515  39.144  45.991  1.00  0.00    -0.336 N 
ATOM     78  H   SER    14      62.495  39.008  46.159  1.00 99.99     0.164 HD
ATOM     79  O   LEU    13      59.949  39.492  44.401  1.00  0.00    -0.271 OA
BRANCH  77  80
ATOM     80  CA  SER    14      60.639  38.482  46.988  1.00  0.00     0.189 C 
BRANCH  80  81
ATOM     81  C   SER    14      60.698  39.084  48.403  1.00  0.00     0.254 C 
ATOM     82  O   SER    14      59.995  40.052  48.683  1.00  0.00    -0.270 OA
ATOM     83  N   ASN    15      61.362  38.378  49.320  1.00  0.00    -0.337 N 
ATOM     84  H   ASN    15      61.651  37.436  49.135  1.00 99.99     0.164 HD
BRANCH  83  85
ATOM     85  CA  ASN    15      61.567  38.830  50.718  1.00  0.00     0.169 C 
BRANCH  85  86
ATOM     86  CB  ASN    15      61.217  37.717  51.712  1.00  0.00     0.119 C 
BRANCH  86  87
ATOM     87  CG  ASN    15      60.220  38.091  52.815  1.00  0.00     0.230 C 
ATOM     88  OD1 ASN    15      59.029  37.818  52.796  1.00  0.00    -0.273 OA
ATOM     89  ND2 ASN    15      60.720  38.802  53.800  1.00  0.00    -0.369 N 
ATOM     90 1HD2 ASN    15      60.094  39.066  54.524  1.00 99.99     0.159 HD
ATOM     91 2HD2 ASN    15      61.689  39.029  53.806  1.00 99.99     0.159 HD
ENDBRANCH  86  87
ENDBRANCH  85  86
BRANCH  85  92
ATOM     92  C   ASN    15      62.993  39.331  51.031  1.00  0.00     0.251 C 
ATOM     93  O   ASN    15      63.270  39.767  52.148  1.00  0.00    -0.271 OA
ATOM     94  N   LEU    16      63.923  39.021  50.131  1.00  0.00    -0.336 N 
ATOM     95  H   LEU    16      63.697  38.444  49.346  1.00 99.99     0.164 HD
BRANCH  94  96
ATOM     96  CA  LEU    16      65.345  39.415  50.205  1.00  0.00     0.168 C 
BRANCH  96  97
ATOM     97  CB  LEU    16      66.149  38.161  49.832  1.00  0.00     0.033 C 
BRANCH  97  98
ATOM     98  CG  LEU    16      67.014  37.557  50.944  1.00  0.00     0.002 C 
ATOM     99  CD1 LEU    16      68.072  38.547  51.441  1.00  0.00     0.000 C 
ATOM    100  CD2 LEU    16      66.111  37.115  52.097  1.00  0.00     0.000 C 
ENDBRANCH  97  98
ENDBRANCH  96  97
BRANCH  96 101
ATOM    101  C   LEU    16      65.696  40.605  49.285  1.00  0.00     0.206 C 
ATOM    102  O   LEU    16      66.898  40.769  48.982  1.00 99.99    -0.646 OA
ATOM    103  OXT LEU    16      64.743  41.304  48.877  1.00 99.99    -0.646 OA
ENDBRANCH  96 101
ENDBRANCH  94  96
ENDBRANCH  85  92
ENDBRANCH  83  85
ENDBRANCH  80  81
BRANCH  80 104
ATOM    104  CB  SER    14      60.964  36.990  47.110  1.00  0.00     0.169 C 
BRANCH 104 105
ATOM    105  OG  SER    14      62.338  36.727  46.814  1.00  0.00    -0.380 OA
ATOM    106  HG  SER    14      62.512  35.754  46.948  1.00 99.99     0.211 HD
ENDBRANCH 104 105
ENDBRANCH  80 104
ENDBRANCH  77  80
ENDBRANCH  75  76
BRANCH  75 107
ATOM    107  CB  LEU    13      62.557  39.512  42.809  1.00  0.00     0.032 C 
BRANCH 107 108
ATOM    108  CG  LEU    13      63.783  38.642  43.115  1.00  0.00     0.002 C 
ATOM    109  CD2 LEU    13      64.823  38.716  41.991  1.00  0.00     0.000 C 
ATOM    110  CD1 LEU    13      63.338  37.191  43.306  1.00  0.00     0.000 C 
ENDBRANCH 107 108
ENDBRANCH  75 107
ENDBRANCH  73  75
ENDBRANCH  70  71
BRANCH  70 111
ATOM    111  CB  LEU    12      66.059  41.197  45.597  1.00  0.00     0.032 C 
BRANCH 111 112
ATOM    112  CG  LEU    12      67.456  41.232  44.963  1.00  0.00     0.002 C 
ATOM    113  CD1 LEU    12      67.416  40.895  43.469  1.00  0.00     0.000 C 
ATOM    114  CD2 LEU    12      68.078  42.613  45.179  1.00  0.00     0.000 C 
ENDBRANCH 111 112
ENDBRANCH  70 111
ENDBRANCH  68  70
ENDBRANCH  65  66
ENDBRANCH  62  65
ENDBRANCH  59  61
ENDBRANCH  57  59
ENDBRANCH  53  55
ENDBRANCH  50  53
ENDBRANCH  48  49
BRANCH  48 115
ATOM    115  CB  THR     8      55.797  39.782  45.524  1.00  0.00     0.140 C 
ATOM    116  CG2 THR     8      55.470  38.285  45.441  1.00  0.00     0.034 C 
BRANCH 115 117
ATOM    117  OG1 THR     8      54.583  40.515  45.340  1.00  0.00    -0.382 OA
ATOM    118  HG1 THR     8      54.772  41.330  44.789  1.00 99.99     0.210 HD
ENDBRANCH 115 117
ENDBRANCH  48 115
ENDBRANCH  46  48
ENDBRANCH  43  44
BRANCH  43 119
ATOM    119  CB  SER     7      53.018  39.989  49.372  1.00  0.00     0.169 C 
BRANCH 119 120
ATOM    120  OG  SER     7      52.450  41.048  50.144  1.00  0.00    -0.380 OA
ATOM    121  HG  SER     7      51.512  40.801  50.390  1.00 99.99     0.211 HD
ENDBRANCH 119 120
ENDBRANCH  43 119
ENDBRANCH  40  43
ENDBRANCH  38  39
BRANCH  38 122
ATOM    122  CB  LEU     6      57.259  41.530  52.653  1.00  0.00     0.032 C 
BRANCH 122 123
ATOM    123  CG  LEU     6      57.169  42.808  51.806  1.00  0.00     0.002 C 
ATOM    124  CD2 LEU     6      55.819  43.513  51.986  1.00  0.00     0.000 C 
ATOM    125  CD1 LEU     6      57.366  42.454  50.331  1.00  0.00     0.000 C 
ENDBRANCH 122 123
ENDBRANCH  38 122
ENDBRANCH  35  38
ENDBRANCH  29  34
ENDBRANCH  27  29
ENDBRANCH  24  25
BRANCH  24 126
ATOM    126  CB  LYS     4      60.198  40.285  60.033  1.00  0.00     0.032 C 
BRANCH 126 127
ATOM    127  CG  LYS     4      60.612  41.762  60.075  1.00  0.00     0.004 C 
BRANCH 127 128
ATOM    128  CD  LYS     4      59.582  42.666  60.754  1.00  0.00     0.032 C 
BRANCH 128 129
ATOM    129  CE  LYS     4      58.187  42.368  60.195  1.00  0.00     0.206 C 
BRANCH 129 130
ATOM    130  NZ  LYS     4      57.800  43.299  59.123  1.00  0.00    -0.064 N 
ATOM    131  HZ1 LYS     4      58.584  43.458  58.523  1.00 99.99     0.275 HD
ATOM    132  HZ2 LYS     4      57.054  42.904  58.586  1.00 99.99     0.275 HD
ATOM    133  HZ3 LYS     4      57.505  44.170  59.517  1.00 99.99     0.275 HD
ENDBRANCH 129 130
ENDBRANCH 128 129
ENDBRANCH 127 128
ENDBRANCH 126 127
ENDBRANCH  24 126
ENDBRANCH  21  24
ENDBRANCH  19  20
ENDBRANCH  16  19
ENDBRANCH  14  15
BRANCH  14 134
ATOM    134  CB  LEU     2      66.810  40.286  56.981  1.00  0.00     0.032 C 
BRANCH 134 135
ATOM    135  CG  LEU     2      67.661  39.678  55.856  1.00  0.00     0.002 C 
ATOM    136  CD2 LEU     2      67.739  40.654  54.680  1.00  0.00     0.000 C 
ATOM    137  CD1 LEU     2      67.113  38.326  55.385  1.00  0.00     0.000 C 
ENDBRANCH 134 135
ENDBRANCH  14 134
ENDBRANCH  12  14
ENDBRANCH   5  10
ENDBRANCH   1   5
TORSDOF 59
ENDMDL
MODEL 2
REMARK VINA RESULT:      -4.2      3.298     10.904
REMARK WARNING: 32 MAX_TORS EXCEEDED!!!
REMARK  59 active torsions:
REMARK  status: ('A' for Active; 'I' for Inactive)
REMARK    1  A    between atoms: N_1  and  CA_2 
REMARK    2  A    between atoms: CA_2  and  CB_5 
REMARK    3  A    between atoms: CA_2  and  C_3 
REMARK       I    between atoms: C_3  and  N_12 
REMARK    4  A    between atoms: CB_5  and  CG1_6 
REMARK    5  A    between atoms: N_12  and  CA_13 
REMARK    6  A    between atoms: CA_13  and  C_14 
REMARK    7  A    between atoms: CA_13  and  CB_16 
REMARK       I    between atoms: C_14  and  N_21 
REMARK    8  A    between atoms: CB_16  and  CG_17 
REMARK    9  A    between atoms: N_21  and  CA_22 
REMARK   10  A    between atoms: CA_22  and  C_23 
REMARK       I    between atoms: C_23  and  N_26 
REMARK   11  A    between atoms: N_26  and  CA_27 
REMARK   12  A    between atoms: CA_27  and  C_28 
REMARK   13  A    between atoms: CA_27  and  CB_30 
REMARK       I    between atoms: C_28  and  N_39 
REMARK   14  A    between atoms: CB_30  and  CG_31 
REMARK   15  A    between atoms: CG_31  and  CD_32 
REMARK   16  A    between atoms: CD_32  and  CE_33 
REMARK   17  A    between atoms: CE_33  and  NZ_34 
REMARK   18  A    between atoms: N_39  and  CA_40 
REMARK   19  A    between atoms: CA_40  and  CB_43 
REMARK   20  A    between atoms: CA_40  and  C_41 
REMARK       I    between atoms: C_41  and  N_48 
REMARK   21  A    between atoms: CB_43  and  CG_44 
REMARK   22  A    between atoms: N_48  and  CA_49 
REMARK   23  A    between atoms: CA_49  and  C_50 
REMARK   24  A    between atoms: CA_49  and  CB_52 
REMARK       I    between atoms: C_50  and  N_57 
REMARK   25  A    between atoms: CB_52  and  CG_53 
REMARK   26  A    between atoms: N_57  and  CA_58 
REMARK   27  A    between atoms: CA_58  and  C_59 
REMARK   28  A    between atoms: CA_58  and  CB_61 
REMARK       I    between atoms: C_59  and  N_65 
REMARK   29  A    between atoms: CB_61  and  OG_62 
REMARK   30  A    between atoms: N_65  and  CA_66 
REMARK   31  A    between atoms: CA_66  and  C_67 
REMARK   32  A    between atoms: CA_66  and  CB_69 
REMARK       I    between atoms: C_67  and  N_74 
REMARK   33  A    between atoms: CB_69  and  OG1_70 
REMARK   34  A    between atoms: N_74  and  CA_75 
REMARK   35  A    between atoms: CA_75  and  C_76 
REMARK       I    between atoms: C_76  and  N_80 
REMARK   36  A    between atoms: N_80  and  CA_81 
REMARK   37  A    between atoms: CA_81  and  C_82 
REMARK       I    between atoms: C_82  and  N_86 
REMARK   38  A    between atoms: N_86  and  CA_87 
REMARK   39  A    between atoms: CA_87  and  C_88 
REMARK       I    between atoms: C_88  and  N_91 
REMARK   40  A    between atoms: N_91  and  CA_92 
REMARK   41  A    between atoms: CA_92  and  C_93 
REMARK   42  A    between atoms: CA_92  and  CB_95 
REMARK       I    between atoms: C_93  and  N_100 
REMARK   43  A    between atoms: CB_95  and  CG_96 
REMARK   44  A    between atoms: N_100  and  CA_101 
REMARK   45  A    between atoms: CA_101  and  C_102 
REMARK   46  A    between atoms: CA_101  and  CB_104 
REMARK       I    between atoms: C_102  and  N_109 
REMARK   47  A    between atoms: CB_104  and  CG_105 
REMARK   48  A    between atoms: N_109  and  CA_110 
REMARK   49  A    between atoms: CA_110  and  C_111 
REMARK   50  A    between atoms: CA_110  and  CB_113 
REMARK       I    between atoms: C_111  and  N_117 
REMARK   51  A    between atoms: CB_113  and  OG_114 
REMARK   52  A    between atoms: N_117  and  CA_118 
REMARK   53  A    between atoms: CA_118  and  CB_121 
REMARK   54  A    between atoms: CA_118  and  C_119 
REMARK       I    between atoms: C_119  and  N_128 
REMARK   55  A    between atoms: CB_121  and  CG_122 
REMARK       I    between atoms: CG_122  and  ND2_124 
REMARK   56  A    between atoms: N_128  and  CA_129 
REMARK   57  A    between atoms: CA_129  and  CB_132 
REMARK   58  A    between atoms: CA_129  and  C_130 
REMARK   59  A    between atoms: CB_132  and  CG_133 
ROOT
ATOM      1  N   ILE     1      70.233  40.118  42.831  1.00  0.00    -0.058 N 
ATOM      2  H1  ILE     1      71.196  40.073  43.092  1.00 99.99     0.276 HD
ATOM      3  H2  ILE     1      69.953  39.219  42.495  1.00 99.99     0.276 HD
ATOM      4  H3  ILE     1      70.112  40.714  42.041  1.00 99.99     0.276 HD
ENDROOT
BRANCH   1   5
ATOM      5  CA  ILE     1      69.385  40.554  43.981  1.00  0.00     0.255 C 
BRANCH   5   6
ATOM      6  CB  ILE     1      70.087  41.636  44.833  1.00  0.00     0.037 C 
ATOM      7  CG2 ILE     1      69.181  42.866  44.985  1.00  0.00     0.002 C 
BRANCH   6   8
ATOM      8  CG1 ILE     1      70.618  41.074  46.166  1.00  0.00     0.002 C 
ATOM      9  CD  ILE     1      69.748  39.970  46.780  1.00  0.00     0.000 C 
ENDBRANCH   6   8
ENDBRANCH   5   6
BRANCH   5  10
ATOM     10  C   ILE     1      67.929  41.020  43.687  1.00  0.00     0.259 C 
ATOM     11  O   ILE     1      67.682  41.708  42.693  1.00  0.00    -0.271 OA
ATOM     12  N   LEU     2      67.022  40.849  44.655  1.00  0.00    -0.338 N 
ATOM     13  H   LEU     2      67.280  40.580  45.581  1.00 99.99     0.164 HD
BRANCH  12  14
ATOM     14  CA  LEU     2      65.564  41.023  44.436  1.00  0.00     0.159 C 
BRANCH  14  15
ATOM     15  C   LEU     2      65.022  40.400  43.132  1.00  0.00     0.251 C 
ATOM     16  N   GLY     3      64.679  41.264  42.162  1.00  0.00    -0.336 N 
ATOM     17  H   GLY     3      64.566  42.250  42.324  1.00 99.99     0.164 HD
ATOM     18  O   LEU     2      65.094  39.181  42.976  1.00  0.00    -0.271 OA
BRANCH  16  19
ATOM     19  CA  GLY     3      64.244  40.857  40.805  1.00  0.00     0.189 C 
BRANCH  19  20
ATOM     20  C   GLY     3      62.734  40.586  40.701  1.00  0.00     0.253 C 
ATOM     21  N   LYS     4      61.932  41.651  40.778  1.00  0.00    -0.337 N 
ATOM     22  H   LYS     4      62.287  42.566  40.958  1.00 99.99     0.164 HD
ATOM     23  O   GLY     3      62.346  39.473  40.357  1.00  0.00    -0.270 OA
BRANCH  21  24
ATOM     24  CA  LYS     4      60.459  41.570  40.656  1.00  0.00     0.159 C 
BRANCH  24  25
ATOM     25  C   LYS     4      59.827  40.601  41.675  1.00  0.00     0.251 C 
ATOM     26  O   LYS     4      59.975  40.815  42.876  1.00  0.00    -0.271 OA
ATOM     27  N   LEU     5      59.287  39.478  41.198  1.00  0.00    -0.338 N 
ATOM     28  H   LEU     5      59.250  39.276  40.217  1.00 99.99     0.164 HD
BRANCH  27  29
ATOM     29  CA  LEU     5      58.705  38.441  42.075  1.00  0.00     0.159 C 
BRANCH  29  30
ATOM     30  CB  LEU     5      59.663  38.148  43.238  1.00  0.00     0.032 C 
BRANCH  30  31
ATOM     31  CG  LEU     5      60.364  36.784  43.144  1.00  0.00     0.002 C 
ATOM     32  CD1 LEU     5      59.651  35.833  42.176  1.00  0.00     0.000 C 
ATOM     33  CD2 LEU     5      61.819  36.984  42.721  1.00  0.00     0.000 C 
ENDBRANCH  30  31
ENDBRANCH  29  30
BRANCH  29  34
ATOM     34  C   LEU     5      57.298  38.827  42.570  1.00  0.00     0.251 C 
ATOM     35  N   LEU     6      56.288  38.062  42.150  1.00  0.00    -0.338 N 
ATOM     36  H   LEU     6      56.421  37.339  41.465  1.00 99.99     0.164 HD
ATOM     37  O   LEU     5      57.183  39.676  43.453  1.00  0.00    -0.271 OA
BRANCH  35  38
ATOM     38  CA  LEU     6      54.899  38.219  42.629  1.00  0.00     0.159 C 
BRANCH  38  39
ATOM     39  C   LEU     6      54.680  37.637  44.036  1.00  0.00     0.251 C 
ATOM     40  N   SER     7      54.701  38.500  45.054  1.00  0.00    -0.336 N 
ATOM     41  H   SER     7      55.020  39.447  44.938  1.00 99.99     0.164 HD
ATOM     42  O   LEU     6      54.305  36.472  44.144  1.00  0.00    -0.271 OA
BRANCH  40  43
ATOM     43  CA  SER     7      54.414  38.127  46.458  1.00  0.00     0.189 C 
BRANCH  43  44
ATOM     44  C   SER     7      53.977  39.331  47.306  1.00  0.00     0.254 C 
ATOM     45  O   SER     7      53.953  40.450  46.797  1.00  0.00    -0.270 OA
ATOM     46  N   THR     8      53.778  39.116  48.610  1.00  0.00    -0.336 N 
ATOM     47  H   THR     8      53.780  38.190  49.006  1.00 99.99     0.164 HD
BRANCH  46  48
ATOM     48  CA  THR     8      53.405  40.192  49.558  1.00  0.00     0.186 C 
BRANCH  48  49
ATOM     49  C   THR     8      54.582  41.155  49.796  1.00  0.00     0.253 C 
ATOM     50  N   ALA     9      54.279  42.438  50.008  1.00  0.00    -0.337 N 
ATOM     51  H   ALA     9      53.334  42.776  49.961  1.00 99.99     0.164 HD
ATOM     52  O   THR     8      55.725  40.707  49.864  1.00  0.00    -0.270 OA
BRANCH  50  53
ATOM     53  CA  ALA     9      55.296  43.477  50.278  1.00  0.00     0.159 C 
ATOM     54  CB  ALA     9      56.211  43.031  51.422  1.00  0.00     0.034 C 
BRANCH  53  55
ATOM     55  C   ALA     9      56.116  43.834  49.026  1.00  0.00     0.251 C 
ATOM     56  O   ALA     9      55.755  44.771  48.316  1.00  0.00    -0.271 OA
ATOM     57  N   ALA    10      57.044  42.947  48.657  1.00  0.00    -0.338 N 
ATOM     58  H   ALA    10      57.259  42.141  49.218  1.00 99.99     0.164 HD
BRANCH  57  59
ATOM     59  CA  ALA    10      57.865  43.079  47.435  1.00  0.00     0.159 C 
ATOM     60  CB  ALA    10      59.186  43.781  47.766  1.00  0.00     0.034 C 
BRANCH  59  61
ATOM     61  C   ALA    10      58.131  41.717  46.773  1.00  0.00     0.251 C 
ATOM     62  N   GLY    11      59.363  41.206  46.946  1.00  0.00    -0.336 N 
ATOM     63  H   GLY    11      60.125  41.722  47.364  1.00 99.99     0.164 HD
ATOM     64  O   ALA    10      57.183  41.066  46.344  1.00  0.00    -0.271 OA
BRANCH  62  65
ATOM     65  CA  GLY    11      59.767  39.866  46.465  1.00  0.00     0.189 C 
BRANCH  65  66
ATOM     66  C   GLY    11      60.988  39.319  47.222  1.00  0.00     0.253 C 
ATOM     67  O   GLY    11      60.979  38.173  47.667  1.00  0.00    -0.270 OA
ATOM     68  N   LEU    12      61.932  40.210  47.521  1.00  0.00    -0.337 N 
ATOM     69  H   LEU    12      61.878  41.163  47.205  1.00 99.99     0.164 HD
BRANCH  68  70
ATOM     70  CA  LEU    12      63.147  39.877  48.291  1.00  0.00     0.159 C 
BRANCH  70  71
ATOM     71  C   LEU    12      63.554  41.004  49.266  1.00  0.00     0.251 C 
ATOM     72  O   LEU    12      64.551  40.864  49.972  1.00  0.00    -0.271 OA
ATOM     73  N   LEU    13      62.666  41.984  49.441  1.00  0.00    -0.338 N 
ATOM     74  H   LEU    13      61.803  42.011  48.926  1.00 99.99     0.164 HD
BRANCH  73  75
ATOM     75  CA  LEU    13      62.866  43.126  50.361  1.00  0.00     0.159 C 
BRANCH  75  76
ATOM     76  C   LEU    13      62.403  42.911  51.816  1.00  0.00     0.251 C 
ATOM     77  N   SER    14      62.939  41.878  52.465  1.00  0.00    -0.336 N 
ATOM     78  H   SER    14      63.398  41.138  51.966  1.00 99.99     0.164 HD
ATOM     79  O   LEU    13      61.509  43.617  52.276  1.00  0.00    -0.271 OA
BRANCH  77  80
ATOM     80  CA  SER    14      62.687  41.571  53.893  1.00  0.00     0.189 C 
BRANCH  80  81
ATOM     81  C   SER    14      63.842  40.856  54.616  1.00  0.00     0.254 C 
ATOM     82  O   SER    14      63.829  40.763  55.842  1.00  0.00    -0.270 OA
ATOM     83  N   ASN    15      64.698  40.183  53.846  1.00  0.00    -0.337 N 
ATOM     84  H   ASN    15      64.497  40.014  52.878  1.00 99.99     0.164 HD
BRANCH  83  85
ATOM     85  CA  ASN    15      65.898  39.483  54.364  1.00  0.00     0.169 C 
BRANCH  85  86
ATOM     86  CB  ASN    15      66.224  38.249  53.515  1.00  0.00     0.119 C 
BRANCH  86  87
ATOM     87  CG  ASN    15      65.690  38.262  52.078  1.00  0.00     0.230 C 
ATOM     88  OD1 ASN    15      64.609  37.806  51.734  1.00  0.00    -0.273 OA
ATOM     89  ND2 ASN    15      66.513  38.761  51.183  1.00  0.00    -0.369 N 
ATOM     90 1HD2 ASN    15      66.195  38.774  50.242  1.00 99.99     0.159 HD
ATOM     91 2HD2 ASN    15      67.395  39.123  51.466  1.00 99.99     0.159 HD
ENDBRANCH  86  87
ENDBRANCH  85  86
BRANCH  85  92
ATOM     92  C   ASN    15      67.167  40.357  54.456  1.00  0.00     0.251 C 
ATOM     93  O   ASN    15      67.952  40.420  53.512  1.00  0.00    -0.271 OA
ATOM     94  N   LEU    16      67.206  41.205  55.481  1.00  0.00    -0.336 N 
ATOM     95  H   LEU    16      66.423  41.295  56.096  1.00 99.99     0.164 HD
BRANCH  94  96
ATOM     96  CA  LEU    16      68.327  42.119  55.788  1.00  0.00     0.168 C 
BRANCH  96  97
ATOM     97  CB  LEU    16      67.715  43.282  56.582  1.00  0.00     0.033 C 
BRANCH  97  98
ATOM     98  CG  LEU    16      68.438  44.629  56.473  1.00  0.00     0.002 C 
ATOM     99  CD1 LEU    16      69.383  44.865  57.655  1.00  0.00     0.000 C 
ATOM    100  CD2 LEU    16      69.211  44.678  55.153  1.00  0.00     0.000 C 
ENDBRANCH  97  98
ENDBRANCH  96  97
BRANCH  96 101
ATOM    101  C   LEU    16      69.471  41.439  56.571  1.00  0.00     0.206 C 
ATOM    102  O   LEU    16      69.217  41.019  57.720  1.00 99.99    -0.646 OA
ATOM    103  OXT LEU    16      70.568  41.324  55.983  1.00 99.99    -0.646 OA
ENDBRANCH  96 101
ENDBRANCH  94  96
ENDBRANCH  85  92
ENDBRANCH  83  85
ENDBRANCH  80  81
BRANCH  80 104
ATOM    104  CB  SER    14      61.434  40.705  54.064  1.00  0.00     0.169 C 
BRANCH 104 105
ATOM    105  OG  SER    14      60.250  41.505  54.133  1.00  0.00    -0.380 OA
ATOM    106  HG  SER    14      59.457  40.908  54.036  1.00 99.99     0.211 HD
ENDBRANCH 104 105
ENDBRANCH  80 104
ENDBRANCH  77  80
ENDBRANCH  75  76
BRANCH  75 107
ATOM    107  CB  LEU    13      62.208  44.389  49.789  1.00  0.00     0.032 C 
BRANCH 107 108
ATOM    108  CG  LEU    13      63.167  45.583  49.678  1.00  0.00     0.002 C 
ATOM    109  CD2 LEU    13      64.627  45.127  49.584  1.00  0.00     0.000 C 
ATOM    110  CD1 LEU    13      62.990  46.487  50.898  1.00  0.00     0.000 C 
ENDBRANCH 107 108
ENDBRANCH  75 107
ENDBRANCH  73  75
ENDBRANCH  70  71
BRANCH  70 111
ATOM    111  CB  LEU    12      64.271  39.538  47.301  1.00  0.00     0.032 C 
BRANCH 111 112
ATOM    112  CG  LEU    12      65.148  38.348  47.714  1.00  0.00     0.002 C 
ATOM    113  CD1 LEU    12      64.318  37.198  48.294  1.00  0.00     0.000 C 
ATOM    114  CD2 LEU    12      65.954  37.866  46.506  1.00  0.00     0.000 C 
ENDBRANCH 111 112
ENDBRANCH  70 111
ENDBRANCH  68  70
ENDBRANCH  65  66
ENDBRANCH  62  65
ENDBRANCH  59  61
ENDBRANCH  57  59
ENDBRANCH  53  55
ENDBRANCH  50  53
ENDBRANCH  48  49
BRANCH  48 115
ATOM    115  CB  THR     8      52.898  39.638  50.904  1.00  0.00     0.140 C 
ATOM    116  CG2 THR     8      52.874  38.103  50.928  1.00  0.00     0.034 C 
BRANCH 115 117
ATOM    117  OG1 THR     8      53.747  40.086  51.964  1.00  0.00    -0.382 OA
ATOM    118  HG1 THR     8      53.855  41.080  51.900  1.00 99.99     0.210 HD
ENDBRANCH 115 117
ENDBRANCH  48 115
ENDBRANCH  46  48
ENDBRANCH  43  44
BRANCH  43 119
ATOM    119  CB  SER     7      55.632  37.485  47.135  1.00  0.00     0.169 C 
BRANCH 119 120
ATOM    120  OG  SER     7      56.642  38.456  47.415  1.00  0.00    -0.380 OA
ATOM    121  HG  SER     7      56.202  39.319  47.663  1.00 99.99     0.211 HD
ENDBRANCH 119 120
ENDBRANCH  43 119
ENDBRANCH  40  43
ENDBRANCH  38  39
BRANCH  38 122
ATOM    122  CB  LEU     6      53.900  37.607  41.639  1.00  0.00     0.032 C 
BRANCH 122 123
ATOM    123  CG  LEU     6      54.470  37.419  40.225  1.00  0.00     0.002 C 
ATOM    124  CD2 LEU     6      53.814  38.371  39.218  1.00  0.00     0.000 C 
ATOM    125  CD1 LEU     6      54.251  35.973  39.778  1.00  0.00     0.000 C 
ENDBRANCH 122 123
ENDBRANCH  38 122
ENDBRANCH  35  38
ENDBRANCH  29  34
ENDBRANCH  27  29
ENDBRANCH  24  25
BRANCH  24 126
ATOM    126  CB  LYS     4      60.053  41.195  39.221  1.00  0.00     0.032 C 
BRANCH 126 127
ATOM    127  CG  LYS     4      60.175  42.393  38.271  1.00  0.00     0.004 C 
BRANCH 127 128
ATOM    128  CD  LYS     4      58.829  43.022  37.906  1.00  0.00     0.032 C 
BRANCH 128 129
ATOM    129  CE  LYS     4      59.013  43.980  36.724  1.00  0.00     0.206 C 
BRANCH 129 130
ATOM    130  NZ  LYS     4      57.758  44.219  35.992  1.00  0.00    -0.064 N 
ATOM    131  HZ1 LYS     4      57.414  45.132  36.214  1.00 99.99     0.275 HD
ATOM    132  HZ2 LYS     4      57.926  44.164  35.008  1.00 99.99     0.275 HD
ATOM    133  HZ3 LYS     4      57.075  43.537  36.255  1.00 99.99     0.275 HD
ENDBRANCH 129 130
ENDBRANCH 128 129
ENDBRANCH 127 128
ENDBRANCH 126 127
ENDBRANCH  24 126
ENDBRANCH  21  24
ENDBRANCH  19  20
ENDBRANCH  16  19
ENDBRANCH  14  15
BRANCH  14 134
ATOM    134  CB  LEU     2      65.188  42.507  44.566  1.00  0.00     0.032 C 
BRANCH 134 135
ATOM    135  CG  LEU     2      65.063  42.996  46.018  1.00  0.00     0.002 C 
ATOM    136  CD2 LEU     2      63.600  43.313  46.333  1.00  0.00     0.000 C 
ATOM    137  CD1 LEU     2      65.940  44.223  46.290  1.00  0.00     0.000 C 
ENDBRANCH 134 135
ENDBRANCH  14 134
ENDBRANCH  12  14
ENDBRANCH   5  10
ENDBRANCH   1   5
TORSDOF 59
ENDMDL
MODEL 3
REMARK VINA RESULT:      -4.2      3.327     10.367
REMARK WARNING: 32 MAX_TORS EXCEEDED!!!
REMARK  59 active torsions:
REMARK  status: ('A' for Active; 'I' for Inactive)
REMARK    1  A    between atoms: N_1  and  CA_2 
REMARK    2  A    between atoms: CA_2  and  CB_5 
REMARK    3  A    between atoms: CA_2  and  C_3 
REMARK       I    between atoms: C_3  and  N_12 
REMARK    4  A    between atoms: CB_5  and  CG1_6 
REMARK    5  A    between atoms: N_12  and  CA_13 
REMARK    6  A    between atoms: CA_13  and  C_14 
REMARK    7  A    between atoms: CA_13  and  CB_16 
REMARK       I    between atoms: C_14  and  N_21 
REMARK    8  A    between atoms: CB_16  and  CG_17 
REMARK    9  A    between atoms: N_21  and  CA_22 
REMARK   10  A    between atoms: CA_22  and  C_23 
REMARK       I    between atoms: C_23  and  N_26 
REMARK   11  A    between atoms: N_26  and  CA_27 
REMARK   12  A    between atoms: CA_27  and  C_28 
REMARK   13  A    between atoms: CA_27  and  CB_30 
REMARK       I    between atoms: C_28  and  N_39 
REMARK   14  A    between atoms: CB_30  and  CG_31 
REMARK   15  A    between atoms: CG_31  and  CD_32 
REMARK   16  A    between atoms: CD_32  and  CE_33 
REMARK   17  A    between atoms: CE_33  and  NZ_34 
REMARK   18  A    between atoms: N_39  and  CA_40 
REMARK   19  A    between atoms: CA_40  and  CB_43 
REMARK   20  A    between atoms: CA_40  and  C_41 
REMARK       I    between atoms: C_41  and  N_48 
REMARK   21  A    between atoms: CB_43  and  CG_44 
REMARK   22  A    between atoms: N_48  and  CA_49 
REMARK   23  A    between atoms: CA_49  and  C_50 
REMARK   24  A    between atoms: CA_49  and  CB_52 
REMARK       I    between atoms: C_50  and  N_57 
REMARK   25  A    between atoms: CB_52  and  CG_53 
REMARK   26  A    between atoms: N_57  and  CA_58 
REMARK   27  A    between atoms: CA_58  and  C_59 
REMARK   28  A    between atoms: CA_58  and  CB_61 
REMARK       I    between atoms: C_59  and  N_65 
REMARK   29  A    between atoms: CB_61  and  OG_62 
REMARK   30  A    between atoms: N_65  and  CA_66 
REMARK   31  A    between atoms: CA_66  and  C_67 
REMARK   32  A    between atoms: CA_66  and  CB_69 
REMARK       I    between atoms: C_67  and  N_74 
REMARK   33  A    between atoms: CB_69  and  OG1_70 
REMARK   34  A    between atoms: N_74  and  CA_75 
REMARK   35  A    between atoms: CA_75  and  C_76 
REMARK       I    between atoms: C_76  and  N_80 
REMARK   36  A    between atoms: N_80  and  CA_81 
REMARK   37  A    between atoms: CA_81  and  C_82 
REMARK       I    between atoms: C_82  and  N_86 
REMARK   38  A    between atoms: N_86  and  CA_87 
REMARK   39  A    between atoms: CA_87  and  C_88 
REMARK       I    between atoms: C_88  and  N_91 
REMARK   40  A    between atoms: N_91  and  CA_92 
REMARK   41  A    between atoms: CA_92  and  C_93 
REMARK   42  A    between atoms: CA_92  and  CB_95 
REMARK       I    between atoms: C_93  and  N_100 
REMARK   43  A    between atoms: CB_95  and  CG_96 
REMARK   44  A    between atoms: N_100  and  CA_101 
REMARK   45  A    between atoms: CA_101  and  C_102 
REMARK   46  A    between atoms: CA_101  and  CB_104 
REMARK       I    between atoms: C_102  and  N_109 
REMARK   47  A    between atoms: CB_104  and  CG_105 
REMARK   48  A    between atoms: N_109  and  CA_110 
REMARK   49  A    between atoms: CA_110  and  C_111 
REMARK   50  A    between atoms: CA_110  and  CB_113 
REMARK       I    between atoms: C_111  and  N_117 
REMARK   51  A    between atoms: CB_113  and  OG_114 
REMARK   52  A    between atoms: N_117  and  CA_118 
REMARK   53  A    between atoms: CA_118  and  CB_121 
REMARK   54  A    between atoms: CA_118  and  C_119 
REMARK       I    between atoms: C_119  and  N_128 
REMARK   55  A    between atoms: CB_121  and  CG_122 
REMARK       I    between atoms: CG_122  and  ND2_124 
REMARK   56  A    between atoms: N_128  and  CA_129 
REMARK   57  A    between atoms: CA_129  and  CB_132 
REMARK   58  A    between atoms: CA_129  and  C_130 
REMARK   59  A    between atoms: CB_132  and  CG_133 
ROOT
ATOM      1  N   ILE     1      70.742  40.427  41.594  1.00  0.00    -0.058 N 
ATOM      2  H1  ILE     1      71.620  39.986  41.778  1.00 99.99     0.276 HD
ATOM      3  H2  ILE     1      70.060  39.716  41.425  1.00 99.99     0.276 HD
ATOM      4  H3  ILE     1      70.778  40.930  40.734  1.00 99.99     0.276 HD
ENDROOT
BRANCH   1   5
ATOM      5  CA  ILE     1      70.335  41.309  42.729  1.00  0.00     0.255 C 
BRANCH   5   6
ATOM      6  CB  ILE     1      70.809  42.766  42.521  1.00  0.00     0.037 C 
ATOM      7  CG2 ILE     1      70.326  43.295  41.164  1.00  0.00     0.002 C 
BRANCH   6   8
ATOM      8  CG1 ILE     1      70.452  43.670  43.716  1.00  0.00     0.002 C 
ATOM      9  CD  ILE     1      71.412  44.847  43.929  1.00  0.00     0.000 C 
ENDBRANCH   6   8
ENDBRANCH   5   6
BRANCH   5  10
ATOM     10  C   ILE     1      68.835  41.328  43.145  1.00  0.00     0.259 C 
ATOM     11  O   ILE     1      67.960  41.580  42.313  1.00  0.00    -0.271 OA
ATOM     12  N   LEU     2      68.560  41.297  44.454  1.00  0.00    -0.338 N 
ATOM     13  H   LEU     2      69.270  41.411  45.147  1.00 99.99     0.164 HD
BRANCH  12  14
ATOM     14  CA  LEU     2      67.194  41.072  44.986  1.00  0.00     0.159 C 
BRANCH  14  15
ATOM     15  C   LEU     2      66.460  39.846  44.402  1.00  0.00     0.251 C 
ATOM     16  N   GLY     3      65.444  40.110  43.564  1.00  0.00    -0.336 N 
ATOM     17  H   GLY     3      65.031  41.022  43.476  1.00 99.99     0.164 HD
ATOM     18  O   LEU     2      66.932  38.724  44.583  1.00  0.00    -0.271 OA
BRANCH  16  19
ATOM     19  CA  GLY     3      64.692  39.071  42.820  1.00  0.00     0.189 C 
BRANCH  19  20
ATOM     20  C   GLY     3      63.217  39.435  42.579  1.00  0.00     0.253 C 
ATOM     21  N   LYS     4      62.670  40.297  43.441  1.00  0.00    -0.337 N 
ATOM     22  H   LYS     4      63.169  40.637  44.235  1.00 99.99     0.164 HD
ATOM     23  O   GLY     3      62.679  39.097  41.530  1.00  0.00    -0.270 OA
BRANCH  21  24
ATOM     24  CA  LYS     4      61.276  40.782  43.329  1.00  0.00     0.159 C 
BRANCH  24  25
ATOM     25  C   LYS     4      60.247  39.635  43.261  1.00  0.00     0.251 C 
ATOM     26  O   LYS     4      60.158  38.855  44.206  1.00  0.00    -0.271 OA
ATOM     27  N   LEU     5      59.617  39.447  42.100  1.00  0.00    -0.338 N 
ATOM     28  H   LEU     5      59.765  40.043  41.308  1.00 99.99     0.164 HD
BRANCH  27  29
ATOM     29  CA  LEU     5      58.655  38.347  41.887  1.00  0.00     0.159 C 
BRANCH  29  30
ATOM     30  CB  LEU     5      59.162  37.074  42.580  1.00  0.00     0.032 C 
BRANCH  30  31
ATOM     31  CG  LEU     5      59.500  35.928  41.613  1.00  0.00     0.002 C 
ATOM     32  CD1 LEU     5      60.585  36.323  40.606  1.00  0.00     0.000 C 
ATOM     33  CD2 LEU     5      59.932  34.697  42.410  1.00  0.00     0.000 C 
ENDBRANCH  30  31
ENDBRANCH  29  30
BRANCH  29  34
ATOM     34  C   LEU     5      57.233  38.726  42.346  1.00  0.00     0.251 C 
ATOM     35  N   LEU     6      56.262  37.857  42.056  1.00  0.00    -0.338 N 
ATOM     36  H   LEU     6      56.428  37.051  41.480  1.00 99.99     0.164 HD
ATOM     37  O   LEU     5      57.081  39.685  43.100  1.00  0.00    -0.271 OA
BRANCH  35  38
ATOM     38  CA  LEU     6      54.871  38.008  42.532  1.00  0.00     0.159 C 
BRANCH  38  39
ATOM     39  C   LEU     6      54.674  37.515  43.975  1.00  0.00     0.251 C 
ATOM     40  N   SER     7      54.714  38.440  44.937  1.00  0.00    -0.336 N 
ATOM     41  H   SER     7      55.035  39.375  44.758  1.00 99.99     0.164 HD
ATOM     42  O   LEU     6      54.296  36.361  44.161  1.00  0.00    -0.271 OA
BRANCH  40  43
ATOM     43  CA  SER     7      54.449  38.155  46.366  1.00  0.00     0.189 C 
BRANCH  43  44
ATOM     44  C   SER     7      54.027  39.410  47.144  1.00  0.00     0.254 C 
ATOM     45  O   SER     7      54.380  40.517  46.741  1.00  0.00    -0.270 OA
ATOM     46  N   THR     8      53.408  39.221  48.314  1.00  0.00    -0.336 N 
ATOM     47  H   THR     8      53.107  38.310  48.619  1.00 99.99     0.164 HD
BRANCH  46  48
ATOM     48  CA  THR     8      52.991  40.336  49.196  1.00  0.00     0.186 C 
BRANCH  48  49
ATOM     49  C   THR     8      54.198  41.193  49.617  1.00  0.00     0.253 C 
ATOM     50  N   ALA     9      54.025  42.517  49.626  1.00  0.00    -0.337 N 
ATOM     51  H   ALA     9      53.168  42.944  49.320  1.00 99.99     0.164 HD
ATOM     52  O   THR     8      55.227  40.641  50.001  1.00  0.00    -0.270 OA
BRANCH  50  53
ATOM     53  CA  ALA     9      55.081  43.469  50.031  1.00  0.00     0.159 C 
ATOM     54  CB  ALA     9      55.753  42.990  51.321  1.00  0.00     0.034 C 
BRANCH  53  55
ATOM     55  C   ALA     9      56.122  43.699  48.922  1.00  0.00     0.251 C 
ATOM     56  O   ALA     9      56.020  44.684  48.193  1.00  0.00    -0.271 OA
ATOM     57  N   ALA    10      56.946  42.679  48.668  1.00  0.00    -0.338 N 
ATOM     58  H   ALA    10      56.948  41.846  49.232  1.00 99.99     0.164 HD
BRANCH  57  59
ATOM     59  CA  ALA    10      57.949  42.685  47.582  1.00  0.00     0.159 C 
ATOM     60  CB  ALA    10      59.217  43.408  48.046  1.00  0.00     0.034 C 
BRANCH  59  61
ATOM     61  C   ALA    10      58.286  41.263  47.103  1.00  0.00     0.251 C 
ATOM     62  N   GLY    11      59.067  40.534  47.919  1.00  0.00    -0.336 N 
ATOM     63  H   GLY    11      59.529  40.916  48.733  1.00 99.99     0.164 HD
ATOM     64  O   ALA    10      57.657  40.784  46.164  1.00  0.00    -0.271 OA
BRANCH  62  65
ATOM     65  CA  GLY    11      59.413  39.117  47.669  1.00  0.00     0.189 C 
BRANCH  65  66
ATOM     66  C   GLY    11      60.836  38.773  48.134  1.00  0.00     0.253 C 
ATOM     67  O   GLY    11      61.063  37.706  48.701  1.00  0.00    -0.270 OA
ATOM     68  N   LEU    12      61.726  39.762  48.063  1.00  0.00    -0.337 N 
ATOM     69  H   LEU    12      61.493  40.654  47.660  1.00 99.99     0.164 HD
BRANCH  68  70
ATOM     70  CA  LEU    12      63.125  39.631  48.517  1.00  0.00     0.159 C 
BRANCH  70  71
ATOM     71  C   LEU    12      63.560  40.800  49.428  1.00  0.00     0.251 C 
ATOM     72  O   LEU    12      64.576  40.688  50.113  1.00  0.00    -0.271 OA
ATOM     73  N   LEU    13      62.680  41.790  49.582  1.00  0.00    -0.338 N 
ATOM     74  H   LEU    13      61.803  41.796  49.090  1.00 99.99     0.164 HD
BRANCH  73  75
ATOM     75  CA  LEU    13      62.907  42.972  50.444  1.00  0.00     0.159 C 
BRANCH  75  76
ATOM     76  C   LEU    13      62.390  42.863  51.892  1.00  0.00     0.251 C 
ATOM     77  N   SER    14      62.888  41.870  52.629  1.00  0.00    -0.336 N 
ATOM     78  H   SER    14      63.354  41.093  52.198  1.00 99.99     0.164 HD
ATOM     79  O   LEU    13      61.491  43.608  52.270  1.00  0.00    -0.271 OA
BRANCH  77  80
ATOM     80  CA  SER    14      62.582  41.665  54.065  1.00  0.00     0.189 C 
BRANCH  80  81
ATOM     81  C   SER    14      63.726  41.053  54.891  1.00  0.00     0.254 C 
ATOM     82  O   SER    14      63.609  40.949  56.110  1.00  0.00    -0.270 OA
ATOM     83  N   ASN    15      64.709  40.469  54.203  1.00  0.00    -0.337 N 
ATOM     84  H   ASN    15      64.614  40.291  53.221  1.00 99.99     0.164 HD
BRANCH  83  85
ATOM     85  CA  ASN    15      65.916  39.878  54.829  1.00  0.00     0.169 C 
BRANCH  85  86
ATOM     86  CB  ASN    15      65.889  38.348  54.738  1.00  0.00     0.119 C 
BRANCH  86  87
ATOM     87  CG  ASN    15      65.127  37.759  53.545  1.00  0.00     0.230 C 
ATOM     88  OD1 ASN    15      63.923  37.548  53.526  1.00  0.00    -0.273 OA
ATOM     89  ND2 ASN    15      65.875  37.425  52.518  1.00  0.00    -0.369 N 
ATOM     90 1HD2 ASN    15      65.407  37.033  51.734  1.00 99.99     0.159 HD
ATOM     91 2HD2 ASN    15      66.855  37.590  52.542  1.00 99.99     0.159 HD
ENDBRANCH  86  87
ENDBRANCH  85  86
BRANCH  85  92
ATOM     92  C   ASN    15      67.255  40.376  54.247  1.00  0.00     0.251 C 
ATOM     93  O   ASN    15      67.516  40.216  53.055  1.00  0.00    -0.271 OA
ATOM     94  N   LEU    16      67.957  41.190  55.032  1.00  0.00    -0.336 N 
ATOM     95  H   LEU    16      67.585  41.494  55.909  1.00 99.99     0.164 HD
BRANCH  94  96
ATOM     96  CA  LEU    16      69.276  41.768  54.699  1.00  0.00     0.168 C 
BRANCH  96  97
ATOM     97  CB  LEU    16      69.677  42.623  55.909  1.00  0.00     0.033 C 
BRANCH  97  98
ATOM     98  CG  LEU    16      69.859  44.122  55.646  1.00  0.00     0.002 C 
ATOM     99  CD1 LEU    16      70.493  44.386  54.277  1.00  0.00     0.000 C 
ATOM    100  CD2 LEU    16      68.500  44.818  55.748  1.00  0.00     0.000 C 
ENDBRANCH  97  98
ENDBRANCH  96  97
BRANCH  96 101
ATOM    101  C   LEU    16      70.346  40.700  54.382  1.00  0.00     0.206 C 
ATOM    102  O   LEU    16      70.662  40.534  53.184  1.00 99.99    -0.646 OA
ATOM    103  OXT LEU    16      70.851  40.099  55.355  1.00 99.99    -0.646 OA
ENDBRANCH  96 101
ENDBRANCH  94  96
ENDBRANCH  85  92
ENDBRANCH  83  85
ENDBRANCH  80  81
BRANCH  80 104
ATOM    104  CB  SER    14      61.354  40.767  54.249  1.00  0.00     0.169 C 
BRANCH 104 105
ATOM    105  OG  SER    14      61.727  39.395  54.403  1.00  0.00    -0.380 OA
ATOM    106  HG  SER    14      62.189  39.094  53.571  1.00 99.99     0.211 HD
ENDBRANCH 104 105
ENDBRANCH  80 104
ENDBRANCH  77  80
ENDBRANCH  75  76
BRANCH  75 107
ATOM    107  CB  LEU    13      62.330  44.230  49.781  1.00  0.00     0.032 C 
BRANCH 107 108
ATOM    108  CG  LEU    13      63.356  45.358  49.610  1.00  0.00     0.002 C 
ATOM    109  CD2 LEU    13      64.788  44.815  49.556  1.00  0.00     0.000 C 
ATOM    110  CD1 LEU    13      63.224  46.341  50.774  1.00  0.00     0.000 C 
ENDBRANCH 107 108
ENDBRANCH  75 107
ENDBRANCH  73  75
ENDBRANCH  70  71
BRANCH  70 111
ATOM    111  CB  LEU    12      64.026  39.497  47.280  1.00  0.00     0.032 C 
BRANCH 111 112
ATOM    112  CG  LEU    12      64.498  38.067  46.987  1.00  0.00     0.002 C 
ATOM    113  CD1 LEU    12      64.542  37.207  48.255  1.00  0.00     0.000 C 
ATOM    114  CD2 LEU    12      63.576  37.430  45.946  1.00  0.00     0.000 C 
ENDBRANCH 111 112
ENDBRANCH  70 111
ENDBRANCH  68  70
ENDBRANCH  65  66
ENDBRANCH  62  65
ENDBRANCH  59  61
ENDBRANCH  57  59
ENDBRANCH  53  55
ENDBRANCH  50  53
ENDBRANCH  48  49
BRANCH  48 115
ATOM    115  CB  THR     8      52.234  39.843  50.446  1.00  0.00     0.140 C 
ATOM    116  CG2 THR     8      51.087  38.889  50.090  1.00  0.00     0.034 C 
BRANCH 115 117
ATOM    117  OG1 THR     8      53.134  39.154  51.318  1.00  0.00    -0.382 OA
ATOM    118  HG1 THR     8      53.161  38.186  51.062  1.00 99.99     0.210 HD
ENDBRANCH 115 117
ENDBRANCH  48 115
ENDBRANCH  46  48
ENDBRANCH  43  44
BRANCH  43 119
ATOM    119  CB  SER     7      55.676  37.553  47.062  1.00  0.00     0.169 C 
BRANCH 119 120
ATOM    120  OG  SER     7      56.067  38.334  48.193  1.00  0.00    -0.380 OA
ATOM    121  HG  SER     7      55.279  38.865  48.507  1.00 99.99     0.211 HD
ENDBRANCH 119 120
ENDBRANCH  43 119
ENDBRANCH  40  43
ENDBRANCH  38  39
BRANCH  38 122
ATOM    122  CB  LEU     6      53.886  37.305  41.589  1.00  0.00     0.032 C 
BRANCH 122 123
ATOM    123  CG  LEU     6      54.328  37.312  40.118  1.00  0.00     0.002 C 
ATOM    124  CD2 LEU     6      54.074  38.673  39.457  1.00  0.00     0.000 C 
ATOM    125  CD1 LEU     6      53.570  36.226  39.355  1.00  0.00     0.000 C 
ENDBRANCH 122 123
ENDBRANCH  38 122
ENDBRANCH  35  38
ENDBRANCH  29  34
ENDBRANCH  27  29
ENDBRANCH  24  25
BRANCH  24 126
ATOM    126  CB  LYS     4      61.124  41.725  42.124  1.00  0.00     0.032 C 
BRANCH 126 127
ATOM    127  CG  LYS     4      60.716  43.137  42.563  1.00  0.00     0.004 C 
BRANCH 127 128
ATOM    128  CD  LYS     4      60.394  43.245  44.055  1.00  0.00     0.032 C 
BRANCH 128 129
ATOM    129  CE  LYS     4      58.915  43.599  44.237  1.00  0.00     0.206 C 
BRANCH 129 130
ATOM    130  NZ  LYS     4      58.018  42.574  43.681  1.00  0.00    -0.064 N 
ATOM    131  HZ1 LYS     4      58.456  42.144  42.891  1.00 99.99     0.275 HD
ATOM    132  HZ2 LYS     4      57.834  41.875  44.372  1.00 99.99     0.275 HD
ATOM    133  HZ3 LYS     4      57.158  42.994  43.391  1.00 99.99     0.275 HD
ENDBRANCH 129 130
ENDBRANCH 128 129
ENDBRANCH 127 128
ENDBRANCH 126 127
ENDBRANCH  24 126
ENDBRANCH  21  24
ENDBRANCH  19  20
ENDBRANCH  16  19
ENDBRANCH  14  15
BRANCH  14 134
ATOM    134  CB  LEU     2      66.362  42.358  44.857  1.00  0.00     0.032 C 
BRANCH 134 135
ATOM    135  CG  LEU     2      65.951  42.976  46.203  1.00  0.00     0.002 C 
ATOM    136  CD2 LEU     2      64.430  43.122  46.262  1.00  0.00     0.000 C 
ATOM    137  CD1 LEU     2      66.622  44.334  46.442  1.00  0.00     0.000 C 
ENDBRANCH 134 135
ENDBRANCH  14 134
ENDBRANCH  12  14
ENDBRANCH   5  10
ENDBRANCH   1   5
TORSDOF 59
ENDMDL
MODEL 4
REMARK VINA RESULT:      -4.1      3.894     14.208
REMARK WARNING: 32 MAX_TORS EXCEEDED!!!
REMARK  59 active torsions:
REMARK  status: ('A' for Active; 'I' for Inactive)
REMARK    1  A    between atoms: N_1  and  CA_2 
REMARK    2  A    between atoms: CA_2  and  CB_5 
REMARK    3  A    between atoms: CA_2  and  C_3 
REMARK       I    between atoms: C_3  and  N_12 
REMARK    4  A    between atoms: CB_5  and  CG1_6 
REMARK    5  A    between atoms: N_12  and  CA_13 
REMARK    6  A    between atoms: CA_13  and  C_14 
REMARK    7  A    between atoms: CA_13  and  CB_16 
REMARK       I    between atoms: C_14  and  N_21 
REMARK    8  A    between atoms: CB_16  and  CG_17 
REMARK    9  A    between atoms: N_21  and  CA_22 
REMARK   10  A    between atoms: CA_22  and  C_23 
REMARK       I    between atoms: C_23  and  N_26 
REMARK   11  A    between atoms: N_26  and  CA_27 
REMARK   12  A    between atoms: CA_27  and  C_28 
REMARK   13  A    between atoms: CA_27  and  CB_30 
REMARK       I    between atoms: C_28  and  N_39 
REMARK   14  A    between atoms: CB_30  and  CG_31 
REMARK   15  A    between atoms: CG_31  and  CD_32 
REMARK   16  A    between atoms: CD_32  and  CE_33 
REMARK   17  A    between atoms: CE_33  and  NZ_34 
REMARK   18  A    between atoms: N_39  and  CA_40 
REMARK   19  A    between atoms: CA_40  and  CB_43 
REMARK   20  A    between atoms: CA_40  and  C_41 
REMARK       I    between atoms: C_41  and  N_48 
REMARK   21  A    between atoms: CB_43  and  CG_44 
REMARK   22  A    between atoms: N_48  and  CA_49 
REMARK   23  A    between atoms: CA_49  and  C_50 
REMARK   24  A    between atoms: CA_49  and  CB_52 
REMARK       I    between atoms: C_50  and  N_57 
REMARK   25  A    between atoms: CB_52  and  CG_53 
REMARK   26  A    between atoms: N_57  and  CA_58 
REMARK   27  A    between atoms: CA_58  and  C_59 
REMARK   28  A    between atoms: CA_58  and  CB_61 
REMARK       I    between atoms: C_59  and  N_65 
REMARK   29  A    between atoms: CB_61  and  OG_62 
REMARK   30  A    between atoms: N_65  and  CA_66 
REMARK   31  A    between atoms: CA_66  and  C_67 
REMARK   32  A    between atoms: CA_66  and  CB_69 
REMARK       I    between atoms: C_67  and  N_74 
REMARK   33  A    between atoms: CB_69  and  OG1_70 
REMARK   34  A    between atoms: N_74  and  CA_75 
REMARK   35  A    between atoms: CA_75  and  C_76 
REMARK       I    between atoms: C_76  and  N_80 
REMARK   36  A    between atoms: N_80  and  CA_81 
REMARK   37  A    between atoms: CA_81  and  C_82 
REMARK       I    between atoms: C_82  and  N_86 
REMARK   38  A    between atoms: N_86  and  CA_87 
REMARK   39  A    between atoms: CA_87  and  C_88 
REMARK       I    between atoms: C_88  and  N_91 
REMARK   40  A    between atoms: N_91  and  CA_92 
REMARK   41  A    between atoms: CA_92  and  C_93 
REMARK   42  A    between atoms: CA_92  and  CB_95 
REMARK       I    between atoms: C_93  and  N_100 
REMARK   43  A    between atoms: CB_95  and  CG_96 
REMARK   44  A    between atoms: N_100  and  CA_101 
REMARK   45  A    between atoms: CA_101  and  C_102 
REMARK   46  A    between atoms: CA_101  and  CB_104 
REMARK       I    between atoms: C_102  and  N_109 
REMARK   47  A    between atoms: CB_104  and  CG_105 
REMARK   48  A    between atoms: N_109  and  CA_110 
REMARK   49  A    between atoms: CA_110  and  C_111 
REMARK   50  A    between atoms: CA_110  and  CB_113 
REMARK       I    between atoms: C_111  and  N_117 
REMARK   51  A    between atoms: CB_113  and  OG_114 
REMARK   52  A    between atoms: N_117  and  CA_118 
REMARK   53  A    between atoms: CA_118  and  CB_121 
REMARK   54  A    between atoms: CA_118  and  C_119 
REMARK       I    between atoms: C_119  and  N_128 
REMARK   55  A    between atoms: CB_121  and  CG_122 
REMARK       I    between atoms: CG_122  and  ND2_124 
REMARK   56  A    between atoms: N_128  and  CA_129 
REMARK   57  A    between atoms: CA_129  and  CB_132 
REMARK   58  A    between atoms: CA_129  and  C_130 
REMARK   59  A    between atoms: CB_132  and  CG_133 
ROOT
ATOM      1  N   ILE     1      64.707  42.801  34.203  1.00  0.00    -0.058 N 
ATOM      2  H1  ILE     1      65.581  42.534  34.608  1.00 99.99     0.276 HD
ATOM      3  H2  ILE     1      64.273  41.987  33.818  1.00 99.99     0.276 HD
ATOM      4  H3  ILE     1      64.855  43.387  33.410  1.00 99.99     0.276 HD
ENDROOT
BRANCH   1   5
ATOM      5  CA  ILE     1      63.825  43.458  35.214  1.00  0.00     0.255 C 
BRANCH   5   6
ATOM      6  CB  ILE     1      64.055  44.986  35.270  1.00  0.00     0.037 C 
ATOM      7  CG2 ILE     1      63.503  45.561  36.582  1.00  0.00     0.002 C 
BRANCH   6   8
ATOM      8  CG1 ILE     1      65.520  45.365  34.981  1.00  0.00     0.002 C 
ATOM      9  CD  ILE     1      66.381  45.569  36.233  1.00  0.00     0.000 C 
ENDBRANCH   6   8
ENDBRANCH   5   6
BRANCH   5  10
ATOM     10  C   ILE     1      62.293  43.189  35.140  1.00  0.00     0.259 C 
ATOM     11  O   ILE     1      61.612  43.701  34.249  1.00  0.00    -0.271 OA
ATOM     12  N   LEU     2      61.724  42.590  36.193  1.00  0.00    -0.338 N 
ATOM     13  H   LEU     2      62.211  42.454  37.053  1.00 99.99     0.164 HD
BRANCH  12  14
ATOM     14  CA  LEU     2      60.338  42.060  36.167  1.00  0.00     0.159 C 
BRANCH  14  15
ATOM     15  C   LEU     2      59.378  42.693  37.197  1.00  0.00     0.251 C 
ATOM     16  N   GLY     3      59.926  43.060  38.368  1.00  0.00    -0.336 N 
ATOM     17  H   GLY     3      60.838  42.758  38.661  1.00 99.99     0.164 HD
ATOM     18  O   LEU     2      58.235  42.987  36.848  1.00  0.00    -0.271 OA
BRANCH  16  19
ATOM     19  CA  GLY     3      59.194  43.780  39.435  1.00  0.00     0.189 C 
BRANCH  19  20
ATOM     20  C   GLY     3      59.690  43.447  40.853  1.00  0.00     0.253 C 
ATOM     21  N   LYS     4      60.029  42.175  41.079  1.00  0.00    -0.337 N 
ATOM     22  H   LYS     4      59.906  41.465  40.388  1.00 99.99     0.164 HD
ATOM     23  O   GLY     3      59.943  44.361  41.631  1.00  0.00    -0.270 OA
BRANCH  21  24
ATOM     24  CA  LYS     4      60.562  41.694  42.374  1.00  0.00     0.159 C 
BRANCH  24  25
ATOM     25  C   LYS     4      62.068  41.366  42.315  1.00  0.00     0.251 C 
ATOM     26  O   LYS     4      62.862  42.092  42.907  1.00  0.00    -0.271 OA
ATOM     27  N   LEU     5      62.451  40.398  41.481  1.00  0.00    -0.338 N 
ATOM     28  H   LEU     5      61.796  39.868  40.937  1.00 99.99     0.164 HD
BRANCH  27  29
ATOM     29  CA  LEU     5      63.868  40.030  41.288  1.00  0.00     0.159 C 
BRANCH  29  30
ATOM     30  CB  LEU     5      64.587  41.133  40.498  1.00  0.00     0.032 C 
BRANCH  30  31
ATOM     31  CG  LEU     5      65.110  40.681  39.126  1.00  0.00     0.002 C 
ATOM     32  CD1 LEU     5      64.873  41.736  38.040  1.00  0.00     0.000 C 
ATOM     33  CD2 LEU     5      66.599  40.347  39.230  1.00  0.00     0.000 C 
ENDBRANCH  30  31
ENDBRANCH  29  30
BRANCH  29  34
ATOM     34  C   LEU     5      64.573  39.724  42.623  1.00  0.00     0.251 C 
ATOM     35  N   LEU     6      65.508  40.593  43.016  1.00  0.00    -0.338 N 
ATOM     36  H   LEU     6      65.811  41.346  42.426  1.00 99.99     0.164 HD
ATOM     37  O   LEU     5      64.133  38.831  43.345  1.00  0.00    -0.271 OA
BRANCH  35  38
ATOM     38  CA  LEU     6      66.187  40.514  44.326  1.00  0.00     0.159 C 
BRANCH  38  39
ATOM     39  C   LEU     6      66.110  41.828  45.121  1.00  0.00     0.251 C 
ATOM     40  N   SER     7      66.664  41.829  46.336  1.00  0.00    -0.336 N 
ATOM     41  H   SER     7      66.955  40.978  46.785  1.00 99.99     0.164 HD
ATOM     42  O   LEU     6      65.736  42.848  44.548  1.00  0.00    -0.271 OA
BRANCH  40  43
ATOM     43  CA  SER     7      66.765  43.031  47.196  1.00  0.00     0.189 C 
BRANCH  43  44
ATOM     44  C   SER     7      65.427  43.387  47.863  1.00  0.00     0.254 C 
ATOM     45  O   SER     7      64.379  43.215  47.243  1.00  0.00    -0.270 OA
ATOM     46  N   THR     8      65.484  44.005  49.046  1.00  0.00    -0.336 N 
ATOM     47  H   THR     8      66.347  44.118  49.550  1.00 99.99     0.164 HD
BRANCH  46  48
ATOM     48  CA  THR     8      64.278  44.455  49.781  1.00  0.00     0.186 C 
BRANCH  48  49
ATOM     49  C   THR     8      63.197  43.359  49.797  1.00  0.00     0.253 C 
ATOM     50  N   ALA     9      62.066  43.616  49.135  1.00  0.00    -0.337 N 
ATOM     51  H   ALA     9      61.899  44.502  48.691  1.00 99.99     0.164 HD
ATOM     52  O   THR     8      63.437  42.281  50.336  1.00  0.00    -0.270 OA
BRANCH  50  53
ATOM     53  CA  ALA     9      60.948  42.654  49.038  1.00  0.00     0.159 C 
ATOM     54  CB  ALA     9      60.260  42.509  50.399  1.00  0.00     0.034 C 
BRANCH  53  55
ATOM     55  C   ALA     9      59.933  43.042  47.948  1.00  0.00     0.251 C 
ATOM     56  O   ALA     9      60.336  43.540  46.898  1.00  0.00    -0.271 OA
ATOM     57  N   ALA    10      58.647  43.029  48.309  1.00  0.00    -0.338 N 
ATOM     58  H   ALA    10      58.354  42.694  49.211  1.00 99.99     0.164 HD
BRANCH  57  59
ATOM     59  CA  ALA    10      57.542  43.455  47.424  1.00  0.00     0.159 C 
ATOM     60  CB  ALA    10      57.299  42.396  46.345  1.00  0.00     0.034 C 
BRANCH  59  61
ATOM     61  C   ALA    10      56.249  43.727  48.211  1.00  0.00     0.251 C 
ATOM     62  N   GLY    11      55.838  42.744  49.031  1.00  0.00    -0.336 N 
ATOM     63  H   GLY    11      56.256  41.823  49.047  1.00 99.99     0.164 HD
ATOM     64  O   ALA    10      55.801  44.869  48.248  1.00  0.00    -0.271 OA
BRANCH  62  65
ATOM     65  CA  GLY    11      54.674  42.867  49.936  1.00  0.00     0.189 C 
BRANCH  65  66
ATOM     66  C   GLY    11      53.926  41.536  50.108  1.00  0.00     0.253 C 
ATOM     67  O   GLY    11      52.825  41.371  49.587  1.00  0.00    -0.270 OA
ATOM     68  N   LEU    12      54.447  40.687  50.993  1.00  0.00    -0.337 N 
ATOM     69  H   LEU    12      55.316  40.880  51.462  1.00 99.99     0.164 HD
BRANCH  68  70
ATOM     70  CA  LEU    12      53.834  39.386  51.329  1.00  0.00     0.159 C 
BRANCH  70  71
ATOM     71  C   LEU    12      53.988  39.031  52.824  1.00  0.00     0.251 C 
ATOM     72  O   LEU    12      52.991  38.989  53.543  1.00  0.00    -0.271 OA
ATOM     73  N   LEU    13      55.234  38.999  53.300  1.00  0.00    -0.338 N 
ATOM     74  H   LEU    13      56.029  39.150  52.703  1.00 99.99     0.164 HD
BRANCH  73  75
ATOM     75  CA  LEU    13      55.573  38.714  54.712  1.00  0.00     0.159 C 
BRANCH  75  76
ATOM     76  C   LEU    13      56.724  39.545  55.312  1.00  0.00     0.251 C 
ATOM     77  N   SER    14      57.929  39.378  54.767  1.00  0.00    -0.336 N 
ATOM     78  H   SER    14      58.128  38.577  54.196  1.00 99.99     0.164 HD
ATOM     79  O   LEU    13      56.516  40.235  56.308  1.00  0.00    -0.271 OA
BRANCH  77  80
ATOM     80  CA  SER    14      59.131  40.156  55.148  1.00  0.00     0.189 C 
BRANCH  80  81
ATOM     81  C   SER    14      60.146  40.379  54.014  1.00  0.00     0.254 C 
ATOM     82  O   SER    14      60.661  41.485  53.865  1.00  0.00    -0.270 OA
ATOM     83  N   ASN    15      60.574  39.288  53.377  1.00  0.00    -0.337 N 
ATOM     84  H   ASN    15      60.376  38.372  53.735  1.00 99.99     0.164 HD
BRANCH  83  85
ATOM     85  CA  ASN    15      61.506  39.318  52.225  1.00  0.00     0.169 C 
BRANCH  85  86
ATOM     86  CB  ASN    15      62.564  38.214  52.345  1.00  0.00     0.119 C 
BRANCH  86  87
ATOM     87  CG  ASN    15      64.022  38.661  52.181  1.00  0.00     0.230 C 
ATOM     88  OD1 ASN    15      64.994  37.974  52.457  1.00  0.00    -0.273 OA
ATOM     89  ND2 ASN    15      64.181  39.897  51.763  1.00  0.00    -0.369 N 
ATOM     90 1HD2 ASN    15      65.115  40.215  51.656  1.00 99.99     0.159 HD
ATOM     91 2HD2 ASN    15      63.386  40.455  51.548  1.00 99.99     0.159 HD
ENDBRANCH  86  87
ENDBRANCH  85  86
BRANCH  85  92
ATOM     92  C   ASN    15      60.830  39.194  50.843  1.00  0.00     0.251 C 
ATOM     93  O   ASN    15      61.508  39.148  49.818  1.00  0.00    -0.271 OA
ATOM     94  N   LEU    16      59.536  38.886  50.862  1.00  0.00    -0.336 N 
ATOM     95  H   LEU    16      59.073  38.689  51.726  1.00 99.99     0.164 HD
BRANCH  94  96
ATOM     96  CA  LEU    16      58.677  38.742  49.667  1.00  0.00     0.168 C 
BRANCH  96  97
ATOM     97  CB  LEU    16      57.982  37.381  49.811  1.00  0.00     0.033 C 
BRANCH  97  98
ATOM     98  CG  LEU    16      58.433  36.286  48.839  1.00  0.00     0.002 C 
ATOM     99  CD1 LEU    16      57.250  35.456  48.329  1.00  0.00     0.000 C 
ATOM    100  CD2 LEU    16      59.178  36.930  47.668  1.00  0.00     0.000 C 
ENDBRANCH  97  98
ENDBRANCH  96  97
BRANCH  96 101
ATOM    101  C   LEU    16      57.651  39.887  49.513  1.00  0.00     0.206 C 
ATOM    102  O   LEU    16      56.943  39.896  48.483  1.00 99.99    -0.646 OA
ATOM    103  OXT LEU    16      57.577  40.710  50.451  1.00 99.99    -0.646 OA
ENDBRANCH  96 101
ENDBRANCH  94  96
ENDBRANCH  85  92
ENDBRANCH  83  85
ENDBRANCH  80  81
BRANCH  80 104
ATOM    104  CB  SER    14      59.880  39.491  56.308  1.00  0.00     0.169 C 
BRANCH 104 105
ATOM    105  OG  SER    14      61.284  39.759  56.247  1.00  0.00    -0.380 OA
ATOM    106  HG  SER    14      61.495  40.148  55.353  1.00 99.99     0.211 HD
ENDBRANCH 104 105
ENDBRANCH  80 104
ENDBRANCH  77  80
ENDBRANCH  75  76
BRANCH  75 107
ATOM    107  CB  LEU    13      55.863  37.219  54.896  1.00  0.00     0.032 C 
BRANCH 107 108
ATOM    108  CG  LEU    13      55.914  36.780  56.366  1.00  0.00     0.002 C 
ATOM    109  CD2 LEU    13      57.247  36.103  56.706  1.00  0.00     0.000 C 
ATOM    110  CD1 LEU    13      54.762  35.814  56.645  1.00  0.00     0.000 C 
ENDBRANCH 107 108
ENDBRANCH  75 107
ENDBRANCH  73  75
ENDBRANCH  70  71
BRANCH  70 111
ATOM    111  CB  LEU    12      54.444  38.313  50.415  1.00  0.00     0.032 C 
BRANCH 111 112
ATOM    112  CG  LEU    12      53.422  37.355  49.787  1.00  0.00     0.002 C 
ATOM    113  CD1 LEU    12      51.986  37.701  50.194  1.00  0.00     0.000 C 
ATOM    114  CD2 LEU    12      53.565  37.386  48.264  1.00  0.00     0.000 C 
ENDBRANCH 111 112
ENDBRANCH  70 111
ENDBRANCH  68  70
ENDBRANCH  65  66
ENDBRANCH  62  65
ENDBRANCH  59  61
ENDBRANCH  57  59
ENDBRANCH  53  55
ENDBRANCH  50  53
ENDBRANCH  48  49
BRANCH  48 115
ATOM    115  CB  THR     8      63.694  45.761  49.207  1.00  0.00     0.140 C 
ATOM    116  CG2 THR     8      63.000  46.607  50.283  1.00  0.00     0.034 C 
BRANCH 115 117
ATOM    117  OG1 THR     8      64.738  46.546  48.626  1.00  0.00    -0.382 OA
ATOM    118  HG1 THR     8      65.385  46.813  49.343  1.00 99.99     0.210 HD
ENDBRANCH 115 117
ENDBRANCH  48 115
ENDBRANCH  46  48
ENDBRANCH  43  44
BRANCH  43 119
ATOM    119  CB  SER     7      67.244  44.256  46.406  1.00  0.00     0.169 C 
BRANCH 119 120
ATOM    120  OG  SER     7      66.249  45.282  46.385  1.00  0.00    -0.380 OA
ATOM    121  HG  SER     7      66.051  45.521  45.434  1.00 99.99     0.211 HD
ENDBRANCH 119 120
ENDBRANCH  43 119
ENDBRANCH  40  43
ENDBRANCH  38  39
BRANCH  38 122
ATOM    122  CB  LEU     6      67.648  40.074  44.166  1.00  0.00     0.032 C 
BRANCH 122 123
ATOM    123  CG  LEU     6      68.349  40.696  42.949  1.00  0.00     0.002 C 
ATOM    124  CD2 LEU     6      69.014  39.629  42.071  1.00  0.00     0.000 C 
ATOM    125  CD1 LEU     6      69.405  41.693  43.426  1.00  0.00     0.000 C 
ENDBRANCH 122 123
ENDBRANCH  38 122
ENDBRANCH  35  38
ENDBRANCH  29  34
ENDBRANCH  27  29
ENDBRANCH  24  25
BRANCH  24 126
ATOM    126  CB  LYS     4      59.758  40.483  42.876  1.00  0.00     0.032 C 
BRANCH 126 127
ATOM    127  CG  LYS     4      60.523  39.710  43.958  1.00  0.00     0.004 C 
BRANCH 127 128
ATOM    128  CD  LYS     4      60.196  40.166  45.381  1.00  0.00     0.032 C 
BRANCH 128 129
ATOM    129  CE  LYS     4      61.480  40.209  46.216  1.00  0.00     0.206 C 
BRANCH 129 130
ATOM    130  NZ  LYS     4      62.381  41.298  45.807  1.00  0.00    -0.064 N 
ATOM    131  HZ1 LYS     4      61.863  41.981  45.291  1.00 99.99     0.275 HD
ATOM    132  HZ2 LYS     4      62.776  41.732  46.617  1.00 99.99     0.275 HD
ATOM    133  HZ3 LYS     4      63.113  40.936  45.230  1.00 99.99     0.275 HD
ENDBRANCH 129 130
ENDBRANCH 128 129
ENDBRANCH 127 128
ENDBRANCH 126 127
ENDBRANCH  24 126
ENDBRANCH  21  24
ENDBRANCH  19  20
ENDBRANCH  16  19
ENDBRANCH  14  15
BRANCH  14 134
ATOM    134  CB  LEU     2      60.361  40.527  36.266  1.00  0.00     0.032 C 
BRANCH 134 135
ATOM    135  CG  LEU     2      61.381  39.980  37.276  1.00  0.00     0.002 C 
ATOM    136  CD2 LEU     2      62.275  38.940  36.597  1.00  0.00     0.000 C 
ATOM    137  CD1 LEU     2      60.703  39.370  38.508  1.00  0.00     0.000 C 
ENDBRANCH 134 135
ENDBRANCH  14 134
ENDBRANCH  12  14
ENDBRANCH   5  10
ENDBRANCH   1   5
TORSDOF 59
ENDMDL
MODEL 5
REMARK VINA RESULT:      -4.0      3.235     10.900
REMARK WARNING: 32 MAX_TORS EXCEEDED!!!
REMARK  59 active torsions:
REMARK  status: ('A' for Active; 'I' for Inactive)
REMARK    1  A    between atoms: N_1  and  CA_2 
REMARK    2  A    between atoms: CA_2  and  CB_5 
REMARK    3  A    between atoms: CA_2  and  C_3 
REMARK       I    between atoms: C_3  and  N_12 
REMARK    4  A    between atoms: CB_5  and  CG1_6 
REMARK    5  A    between atoms: N_12  and  CA_13 
REMARK    6  A    between atoms: CA_13  and  C_14 
REMARK    7  A    between atoms: CA_13  and  CB_16 
REMARK       I    between atoms: C_14  and  N_21 
REMARK    8  A    between atoms: CB_16  and  CG_17 
REMARK    9  A    between atoms: N_21  and  CA_22 
REMARK   10  A    between atoms: CA_22  and  C_23 
REMARK       I    between atoms: C_23  and  N_26 
REMARK   11  A    between atoms: N_26  and  CA_27 
REMARK   12  A    between atoms: CA_27  and  C_28 
REMARK   13  A    between atoms: CA_27  and  CB_30 
REMARK       I    between atoms: C_28  and  N_39 
REMARK   14  A    between atoms: CB_30  and  CG_31 
REMARK   15  A    between atoms: CG_31  and  CD_32 
REMARK   16  A    between atoms: CD_32  and  CE_33 
REMARK   17  A    between atoms: CE_33  and  NZ_34 
REMARK   18  A    between atoms: N_39  and  CA_40 
REMARK   19  A    between atoms: CA_40  and  CB_43 
REMARK   20  A    between atoms: CA_40  and  C_41 
REMARK       I    between atoms: C_41  and  N_48 
REMARK   21  A    between atoms: CB_43  and  CG_44 
REMARK   22  A    between atoms: N_48  and  CA_49 
REMARK   23  A    between atoms: CA_49  and  C_50 
REMARK   24  A    between atoms: CA_49  and  CB_52 
REMARK       I    between atoms: C_50  and  N_57 
REMARK   25  A    between atoms: CB_52  and  CG_53 
REMARK   26  A    between atoms: N_57  and  CA_58 
REMARK   27  A    between atoms: CA_58  and  C_59 
REMARK   28  A    between atoms: CA_58  and  CB_61 
REMARK       I    between atoms: C_59  and  N_65 
REMARK   29  A    between atoms: CB_61  and  OG_62 
REMARK   30  A    between atoms: N_65  and  CA_66 
REMARK   31  A    between atoms: CA_66  and  C_67 
REMARK   32  A    between atoms: CA_66  and  CB_69 
REMARK       I    between atoms: C_67  and  N_74 
REMARK   33  A    between atoms: CB_69  and  OG1_70 
REMARK   34  A    between atoms: N_74  and  CA_75 
REMARK   35  A    between atoms: CA_75  and  C_76 
REMARK       I    between atoms: C_76  and  N_80 
REMARK   36  A    between atoms: N_80  and  CA_81 
REMARK   37  A    between atoms: CA_81  and  C_82 
REMARK       I    between atoms: C_82  and  N_86 
REMARK   38  A    between atoms: N_86  and  CA_87 
REMARK   39  A    between atoms: CA_87  and  C_88 
REMARK       I    between atoms: C_88  and  N_91 
REMARK   40  A    between atoms: N_91  and  CA_92 
REMARK   41  A    between atoms: CA_92  and  C_93 
REMARK   42  A    between atoms: CA_92  and  CB_95 
REMARK       I    between atoms: C_93  and  N_100 
REMARK   43  A    between atoms: CB_95  and  CG_96 
REMARK   44  A    between atoms: N_100  and  CA_101 
REMARK   45  A    between atoms: CA_101  and  C_102 
REMARK   46  A    between atoms: CA_101  and  CB_104 
REMARK       I    between atoms: C_102  and  N_109 
REMARK   47  A    between atoms: CB_104  and  CG_105 
REMARK   48  A    between atoms: N_109  and  CA_110 
REMARK   49  A    between atoms: CA_110  and  C_111 
REMARK   50  A    between atoms: CA_110  and  CB_113 
REMARK       I    between atoms: C_111  and  N_117 
REMARK   51  A    between atoms: CB_113  and  OG_114 
REMARK   52  A    between atoms: N_117  and  CA_118 
REMARK   53  A    between atoms: CA_118  and  CB_121 
REMARK   54  A    between atoms: CA_118  and  C_119 
REMARK       I    between atoms: C_119  and  N_128 
REMARK   55  A    between atoms: CB_121  and  CG_122 
REMARK       I    between atoms: CG_122  and  ND2_124 
REMARK   56  A    between atoms: N_128  and  CA_129 
REMARK   57  A    between atoms: CA_129  and  CB_132 
REMARK   58  A    between atoms: CA_129  and  C_130 
REMARK   59  A    between atoms: CB_132  and  CG_133 
ROOT
ATOM      1  N   ILE     1      70.357  40.603  41.850  1.00  0.00    -0.058 N 
ATOM      2  H1  ILE     1      71.280  40.268  42.034  1.00 99.99     0.276 HD
ATOM      3  H2  ILE     1      69.774  39.821  41.631  1.00 99.99     0.276 HD
ATOM      4  H3  ILE     1      70.345  41.148  41.014  1.00 99.99     0.276 HD
ENDROOT
BRANCH   1   5
ATOM      5  CA  ILE     1      69.822  41.371  43.014  1.00  0.00     0.255 C 
BRANCH   5   6
ATOM      6  CB  ILE     1      70.337  42.828  43.025  1.00  0.00     0.037 C 
ATOM      7  CG2 ILE     1      71.329  43.035  44.178  1.00  0.00     0.002 C 
BRANCH   6   8
ATOM      8  CG1 ILE     1      70.869  43.269  41.648  1.00  0.00     0.002 C 
ATOM      9  CD  ILE     1      70.686  44.762  41.346  1.00  0.00     0.000 C 
ENDBRANCH   6   8
ENDBRANCH   5   6
BRANCH   5  10
ATOM     10  C   ILE     1      68.282  41.386  43.240  1.00  0.00     0.259 C 
ATOM     11  O   ILE     1      67.511  41.500  42.283  1.00  0.00    -0.271 OA
ATOM     12  N   LEU     2      67.847  41.507  44.499  1.00  0.00    -0.338 N 
ATOM     13  H   LEU     2      68.462  41.731  45.253  1.00 99.99     0.164 HD
BRANCH  12  14
ATOM     14  CA  LEU     2      66.430  41.298  44.887  1.00  0.00     0.159 C 
BRANCH  14  15
ATOM     15  C   LEU     2      65.762  40.050  44.273  1.00  0.00     0.251 C 
ATOM     16  N   GLY     3      64.742  40.279  43.429  1.00  0.00    -0.336 N 
ATOM     17  H   GLY     3      64.285  41.172  43.355  1.00 99.99     0.164 HD
ATOM     18  O   LEU     2      66.287  38.949  44.436  1.00  0.00    -0.271 OA
BRANCH  16  19
ATOM     19  CA  GLY     3      64.049  39.220  42.659  1.00  0.00     0.189 C 
BRANCH  19  20
ATOM     20  C   GLY     3      62.688  39.662  42.095  1.00  0.00     0.253 C 
ATOM     21  N   LYS     4      61.947  40.449  42.881  1.00  0.00    -0.337 N 
ATOM     22  H   LYS     4      62.230  40.686  43.807  1.00 99.99     0.164 HD
ATOM     23  O   GLY     3      62.432  39.456  40.913  1.00  0.00    -0.270 OA
BRANCH  21  24
ATOM     24  CA  LYS     4      60.632  40.995  42.475  1.00  0.00     0.159 C 
BRANCH  24  25
ATOM     25  C   LYS     4      59.599  39.894  42.161  1.00  0.00     0.251 C 
ATOM     26  O   LYS     4      59.047  39.308  43.088  1.00  0.00    -0.271 OA
ATOM     27  N   LEU     5      59.477  39.516  40.887  1.00  0.00    -0.338 N 
ATOM     28  H   LEU     5      59.999  39.947  40.147  1.00 99.99     0.164 HD
BRANCH  27  29
ATOM     29  CA  LEU     5      58.568  38.431  40.463  1.00  0.00     0.159 C 
BRANCH  29  30
ATOM     30  CB  LEU     5      59.030  37.100  41.074  1.00  0.00     0.032 C 
BRANCH  30  31
ATOM     31  CG  LEU     5      60.393  36.615  40.559  1.00  0.00     0.002 C 
ATOM     32  CD1 LEU     5      61.336  36.220  41.701  1.00  0.00     0.000 C 
ATOM     33  CD2 LEU     5      60.191  35.439  39.603  1.00  0.00     0.000 C 
ENDBRANCH  30  31
ENDBRANCH  29  30
BRANCH  29  34
ATOM     34  C   LEU     5      57.098  38.743  40.804  1.00  0.00     0.251 C 
ATOM     35  N   LEU     6      56.505  37.933  41.684  1.00  0.00    -0.338 N 
ATOM     36  H   LEU     6      56.957  37.103  42.026  1.00 99.99     0.164 HD
ATOM     37  O   LEU     5      56.602  39.799  40.414  1.00  0.00    -0.271 OA
BRANCH  35  38
ATOM     38  CA  LEU     6      55.145  38.166  42.210  1.00  0.00     0.159 C 
BRANCH  38  39
ATOM     39  C   LEU     6      54.951  37.619  43.634  1.00  0.00     0.251 C 
ATOM     40  N   SER     7      54.874  38.517  44.618  1.00  0.00    -0.336 N 
ATOM     41  H   SER     7      55.109  39.484  44.471  1.00 99.99     0.164 HD
ATOM     42  O   LEU     6      54.680  36.429  43.782  1.00  0.00    -0.271 OA
BRANCH  40  43
ATOM     43  CA  SER     7      54.594  38.172  46.031  1.00  0.00     0.189 C 
BRANCH  43  44
ATOM     44  C   SER     7      54.079  39.374  46.836  1.00  0.00     0.254 C 
ATOM     45  O   SER     7      54.149  40.502  46.350  1.00  0.00    -0.270 OA
ATOM     46  N   THR     8      53.707  39.146  48.100  1.00  0.00    -0.336 N 
ATOM     47  H   THR     8      53.634  38.215  48.476  1.00 99.99     0.164 HD
BRANCH  46  48
ATOM     48  CA  THR     8      53.241  40.217  49.011  1.00  0.00     0.186 C 
BRANCH  48  49
ATOM     49  C   THR     8      54.396  41.155  49.403  1.00  0.00     0.253 C 
ATOM     50  N   ALA     9      54.105  42.451  49.532  1.00  0.00    -0.337 N 
ATOM     51  H   ALA     9      53.190  42.814  49.330  1.00 99.99     0.164 HD
ATOM     52  O   THR     8      55.501  40.679  49.659  1.00  0.00    -0.270 OA
BRANCH  50  53
ATOM     53  CA  ALA     9      55.100  43.471  49.928  1.00  0.00     0.159 C 
ATOM     54  CB  ALA     9      55.904  42.977  51.135  1.00  0.00     0.034 C 
BRANCH  53  55
ATOM     55  C   ALA     9      56.034  43.861  48.769  1.00  0.00     0.251 C 
ATOM     56  O   ALA     9      55.889  44.951  48.219  1.00  0.00    -0.271 OA
ATOM     57  N   ALA    10      56.800  42.884  48.276  1.00  0.00    -0.338 N 
ATOM     58  H   ALA    10      56.833  41.972  48.699  1.00 99.99     0.164 HD
BRANCH  57  59
ATOM     59  CA  ALA    10      57.692  43.051  47.109  1.00  0.00     0.159 C 
ATOM     60  CB  ALA    10      58.935  43.849  47.511  1.00  0.00     0.034 C 
BRANCH  59  61
ATOM     61  C   ALA    10      58.095  41.699  46.497  1.00  0.00     0.251 C 
ATOM     62  N   GLY    11      59.264  41.185  46.917  1.00  0.00    -0.336 N 
ATOM     63  H   GLY    11      59.920  41.695  47.494  1.00 99.99     0.164 HD
ATOM     64  O   ALA    10      57.260  41.055  45.869  1.00  0.00    -0.271 OA
BRANCH  62  65
ATOM     65  CA  GLY    11      59.763  39.852  46.512  1.00  0.00     0.189 C 
BRANCH  65  66
ATOM     66  C   GLY    11      60.933  39.377  47.389  1.00  0.00     0.253 C 
ATOM     67  O   GLY    11      60.847  38.325  48.020  1.00  0.00    -0.270 OA
ATOM     68  N   LEU    12      61.920  40.254  47.565  1.00  0.00    -0.337 N 
ATOM     69  H   LEU    12      61.929  41.141  47.092  1.00 99.99     0.164 HD
BRANCH  68  70
ATOM     70  CA  LEU    12      63.096  39.992  48.419  1.00  0.00     0.159 C 
BRANCH  70  71
ATOM     71  C   LEU    12      63.461  41.202  49.306  1.00  0.00     0.251 C 
ATOM     72  O   LEU    12      64.484  41.166  49.989  1.00  0.00    -0.271 OA
ATOM     73  N   LEU    13      62.522  42.139  49.444  1.00  0.00    -0.338 N 
ATOM     74  H   LEU    13      61.645  42.082  48.956  1.00 99.99     0.164 HD
BRANCH  73  75
ATOM     75  CA  LEU    13      62.679  43.350  50.282  1.00  0.00     0.159 C 
BRANCH  75  76
ATOM     76  C   LEU    13      61.928  43.341  51.628  1.00  0.00     0.251 C 
ATOM     77  N   SER    14      61.216  42.249  51.908  1.00  0.00    -0.336 N 
ATOM     78  H   SER    14      60.966  41.600  51.185  1.00 99.99     0.164 HD
ATOM     79  O   LEU    13      61.930  44.351  52.328  1.00  0.00    -0.271 OA
BRANCH  77  80
ATOM     80  CA  SER    14      60.508  42.023  53.190  1.00  0.00     0.189 C 
BRANCH  80  81
ATOM     81  C   SER    14      60.990  40.802  53.990  1.00  0.00     0.254 C 
ATOM     82  O   SER    14      60.183  39.942  54.336  1.00  0.00    -0.270 OA
ATOM     83  N   ASN    15      62.311  40.637  54.084  1.00  0.00    -0.337 N 
ATOM     84  H   ASN    15      62.938  41.179  53.520  1.00 99.99     0.164 HD
BRANCH  83  85
ATOM     85  CA  ASN    15      62.954  39.550  54.860  1.00  0.00     0.169 C 
BRANCH  85  86
ATOM     86  CB  ASN    15      63.325  38.371  53.953  1.00  0.00     0.119 C 
BRANCH  86  87
ATOM     87  CG  ASN    15      63.552  38.708  52.474  1.00  0.00     0.230 C 
ATOM     88  OD1 ASN    15      62.680  38.701  51.619  1.00  0.00    -0.273 OA
ATOM     89  ND2 ASN    15      64.799  38.960  52.147  1.00  0.00    -0.369 N 
ATOM     90 1HD2 ASN    15      64.976  39.173  51.193  1.00 99.99     0.159 HD
ATOM     91 2HD2 ASN    15      65.507  38.956  52.845  1.00 99.99     0.159 HD
ENDBRANCH  86  87
ENDBRANCH  85  86
BRANCH  85  92
ATOM     92  C   ASN    15      64.213  39.974  55.645  1.00  0.00     0.251 C 
ATOM     93  O   ASN    15      65.171  40.481  55.063  1.00  0.00    -0.271 OA
ATOM     94  N   LEU    16      64.085  39.996  56.970  1.00  0.00    -0.336 N 
ATOM     95  H   LEU    16      63.200  39.810  57.397  1.00 99.99     0.164 HD
BRANCH  94  96
ATOM     96  CA  LEU    16      65.159  40.343  57.924  1.00  0.00     0.168 C 
BRANCH  96  97
ATOM     97  CB  LEU    16      64.496  41.205  59.008  1.00  0.00     0.033 C 
BRANCH  97  98
ATOM     98  CG  LEU    16      64.809  42.705  58.964  1.00  0.00     0.002 C 
ATOM     99  CD1 LEU    16      64.071  43.472  60.066  1.00  0.00     0.000 C 
ATOM    100  CD2 LEU    16      66.321  42.905  59.095  1.00  0.00     0.000 C 
ENDBRANCH  97  98
ENDBRANCH  96  97
BRANCH  96 101
ATOM    101  C   LEU    16      65.855  39.106  58.533  1.00  0.00     0.206 C 
ATOM    102  O   LEU    16      66.269  39.194  59.709  1.00 99.99    -0.646 OA
ATOM    103  OXT LEU    16      65.924  38.085  57.815  1.00 99.99    -0.646 OA
ENDBRANCH  96 101
ENDBRANCH  94  96
ENDBRANCH  85  92
ENDBRANCH  83  85
ENDBRANCH  80  81
BRANCH  80 104
ATOM    104  CB  SER    14      59.000  41.861  52.971  1.00  0.00     0.169 C 
BRANCH 104 105
ATOM    105  OG  SER    14      58.705  40.694  52.198  1.00  0.00    -0.380 OA
ATOM    106  HG  SER    14      57.946  40.210  52.628  1.00 99.99     0.211 HD
ENDBRANCH 104 105
ENDBRANCH  80 104
ENDBRANCH  77  80
ENDBRANCH  75  76
BRANCH  75 107
ATOM    107  CB  LEU    13      62.295  44.601  49.482  1.00  0.00     0.032 C 
BRANCH 107 108
ATOM    108  CG  LEU    13      63.502  45.438  49.036  1.00  0.00     0.002 C 
ATOM    109  CD2 LEU    13      64.791  44.983  49.731  1.00  0.00     0.000 C 
ATOM    110  CD1 LEU    13      63.241  46.910  49.354  1.00  0.00     0.000 C 
ENDBRANCH 107 108
ENDBRANCH  75 107
ENDBRANCH  73  75
ENDBRANCH  70  71
BRANCH  70 111
ATOM    111  CB  LEU    12      64.264  39.563  47.518  1.00  0.00     0.032 C 
BRANCH 111 112
ATOM    112  CG  LEU    12      64.587  38.063  47.563  1.00  0.00     0.002 C 
ATOM    113  CD1 LEU    12      64.185  37.430  48.899  1.00  0.00     0.000 C 
ATOM    114  CD2 LEU    12      63.879  37.356  46.406  1.00  0.00     0.000 C 
ENDBRANCH 111 112
ENDBRANCH  70 111
ENDBRANCH  68  70
ENDBRANCH  65  66
ENDBRANCH  62  65
ENDBRANCH  59  61
ENDBRANCH  57  59
ENDBRANCH  53  55
ENDBRANCH  50  53
ENDBRANCH  48  49
BRANCH  48 115
ATOM    115  CB  THR     8      52.565  39.657  50.278  1.00  0.00     0.140 C 
ATOM    116  CG2 THR     8      52.690  38.130  50.375  1.00  0.00     0.034 C 
BRANCH 115 117
ATOM    117  OG1 THR     8      53.168  40.228  51.443  1.00  0.00    -0.382 OA
ATOM    118  HG1 THR     8      53.519  39.492  52.025  1.00 99.99     0.210 HD
ENDBRANCH 115 117
ENDBRANCH  48 115
ENDBRANCH  46  48
ENDBRANCH  43  44
BRANCH  43 119
ATOM    119  CB  SER     7      55.839  37.622  46.738  1.00  0.00     0.169 C 
BRANCH 119 120
ATOM    120  OG  SER     7      56.491  38.636  47.506  1.00  0.00    -0.380 OA
ATOM    121  HG  SER     7      56.740  39.391  46.899  1.00 99.99     0.211 HD
ENDBRANCH 119 120
ENDBRANCH  43 119
ENDBRANCH  40  43
ENDBRANCH  38  39
BRANCH  38 122
ATOM    122  CB  LEU     6      54.081  37.586  41.269  1.00  0.00     0.032 C 
BRANCH 122 123
ATOM    123  CG  LEU     6      54.622  36.510  40.316  1.00  0.00     0.002 C 
ATOM    124  CD2 LEU     6      54.451  36.916  38.847  1.00  0.00     0.000 C 
ATOM    125  CD1 LEU     6      53.889  35.192  40.569  1.00  0.00     0.000 C 
ENDBRANCH 122 123
ENDBRANCH  38 122
ENDBRANCH  35  38
ENDBRANCH  29  34
ENDBRANCH  27  29
ENDBRANCH  24  25
BRANCH  24 126
ATOM    126  CB  LYS     4      60.787  41.955  41.284  1.00  0.00     0.032 C 
BRANCH 126 127
ATOM    127  CG  LYS     4      59.843  43.159  41.406  1.00  0.00     0.004 C 
BRANCH 127 128
ATOM    128  CD  LYS     4      59.290  43.640  40.063  1.00  0.00     0.032 C 
BRANCH 128 129
ATOM    129  CE  LYS     4      59.928  42.835  38.926  1.00  0.00     0.206 C 
BRANCH 129 130
ATOM    130  NZ  LYS     4      60.662  43.686  37.976  1.00  0.00    -0.064 N 
ATOM    131  HZ1 LYS     4      60.227  43.630  37.077  1.00 99.99     0.275 HD
ATOM    132  HZ2 LYS     4      60.642  44.636  38.289  1.00 99.99     0.275 HD
ATOM    133  HZ3 LYS     4      61.610  43.377  37.903  1.00 99.99     0.275 HD
ENDBRANCH 129 130
ENDBRANCH 128 129
ENDBRANCH 127 128
ENDBRANCH 126 127
ENDBRANCH  24 126
ENDBRANCH  21  24
ENDBRANCH  19  20
ENDBRANCH  16  19
ENDBRANCH  14  15
BRANCH  14 134
ATOM    134  CB  LEU     2      65.620  42.577  44.619  1.00  0.00     0.032 C 
BRANCH 134 135
ATOM    135  CG  LEU     2      65.161  43.306  45.892  1.00  0.00     0.002 C 
ATOM    136  CD2 LEU     2      65.919  42.758  47.103  1.00  0.00     0.000 C 
ATOM    137  CD1 LEU     2      63.650  43.183  46.114  1.00  0.00     0.000 C 
ENDBRANCH 134 135
ENDBRANCH  14 134
ENDBRANCH  12  14
ENDBRANCH   5  10
ENDBRANCH   1   5
TORSDOF 59
ENDMDL
MODEL 6
REMARK VINA RESULT:      -4.0      7.779     16.766
REMARK WARNING: 32 MAX_TORS EXCEEDED!!!
REMARK  59 active torsions:
REMARK  status: ('A' for Active; 'I' for Inactive)
REMARK    1  A    between atoms: N_1  and  CA_2 
REMARK    2  A    between atoms: CA_2  and  CB_5 
REMARK    3  A    between atoms: CA_2  and  C_3 
REMARK       I    between atoms: C_3  and  N_12 
REMARK    4  A    between atoms: CB_5  and  CG1_6 
REMARK    5  A    between atoms: N_12  and  CA_13 
REMARK    6  A    between atoms: CA_13  and  C_14 
REMARK    7  A    between atoms: CA_13  and  CB_16 
REMARK       I    between atoms: C_14  and  N_21 
REMARK    8  A    between atoms: CB_16  and  CG_17 
REMARK    9  A    between atoms: N_21  and  CA_22 
REMARK   10  A    between atoms: CA_22  and  C_23 
REMARK       I    between atoms: C_23  and  N_26 
REMARK   11  A    between atoms: N_26  and  CA_27 
REMARK   12  A    between atoms: CA_27  and  C_28 
REMARK   13  A    between atoms: CA_27  and  CB_30 
REMARK       I    between atoms: C_28  and  N_39 
REMARK   14  A    between atoms: CB_30  and  CG_31 
REMARK   15  A    between atoms: CG_31  and  CD_32 
REMARK   16  A    between atoms: CD_32  and  CE_33 
REMARK   17  A    between atoms: CE_33  and  NZ_34 
REMARK   18  A    between atoms: N_39  and  CA_40 
REMARK   19  A    between atoms: CA_40  and  CB_43 
REMARK   20  A    between atoms: CA_40  and  C_41 
REMARK       I    between atoms: C_41  and  N_48 
REMARK   21  A    between atoms: CB_43  and  CG_44 
REMARK   22  A    between atoms: N_48  and  CA_49 
REMARK   23  A    between atoms: CA_49  and  C_50 
REMARK   24  A    between atoms: CA_49  and  CB_52 
REMARK       I    between atoms: C_50  and  N_57 
REMARK   25  A    between atoms: CB_52  and  CG_53 
REMARK   26  A    between atoms: N_57  and  CA_58 
REMARK   27  A    between atoms: CA_58  and  C_59 
REMARK   28  A    between atoms: CA_58  and  CB_61 
REMARK       I    between atoms: C_59  and  N_65 
REMARK   29  A    between atoms: CB_61  and  OG_62 
REMARK   30  A    between atoms: N_65  and  CA_66 
REMARK   31  A    between atoms: CA_66  and  C_67 
REMARK   32  A    between atoms: CA_66  and  CB_69 
REMARK       I    between atoms: C_67  and  N_74 
REMARK   33  A    between atoms: CB_69  and  OG1_70 
REMARK   34  A    between atoms: N_74  and  CA_75 
REMARK   35  A    between atoms: CA_75  and  C_76 
REMARK       I    between atoms: C_76  and  N_80 
REMARK   36  A    between atoms: N_80  and  CA_81 
REMARK   37  A    between atoms: CA_81  and  C_82 
REMARK       I    between atoms: C_82  and  N_86 
REMARK   38  A    between atoms: N_86  and  CA_87 
REMARK   39  A    between atoms: CA_87  and  C_88 
REMARK       I    between atoms: C_88  and  N_91 
REMARK   40  A    between atoms: N_91  and  CA_92 
REMARK   41  A    between atoms: CA_92  and  C_93 
REMARK   42  A    between atoms: CA_92  and  CB_95 
REMARK       I    between atoms: C_93  and  N_100 
REMARK   43  A    between atoms: CB_95  and  CG_96 
REMARK   44  A    between atoms: N_100  and  CA_101 
REMARK   45  A    between atoms: CA_101  and  C_102 
REMARK   46  A    between atoms: CA_101  and  CB_104 
REMARK       I    between atoms: C_102  and  N_109 
REMARK   47  A    between atoms: CB_104  and  CG_105 
REMARK   48  A    between atoms: N_109  and  CA_110 
REMARK   49  A    between atoms: CA_110  and  C_111 
REMARK   50  A    between atoms: CA_110  and  CB_113 
REMARK       I    between atoms: C_111  and  N_117 
REMARK   51  A    between atoms: CB_113  and  OG_114 
REMARK   52  A    between atoms: N_117  and  CA_118 
REMARK   53  A    between atoms: CA_118  and  CB_121 
REMARK   54  A    between atoms: CA_118  and  C_119 
REMARK       I    between atoms: C_119  and  N_128 
REMARK   55  A    between atoms: CB_121  and  CG_122 
REMARK       I    between atoms: CG_122  and  ND2_124 
REMARK   56  A    between atoms: N_128  and  CA_129 
REMARK   57  A    between atoms: CA_129  and  CB_132 
REMARK   58  A    between atoms: CA_129  and  C_130 
REMARK   59  A    between atoms: CB_132  and  CG_133 
ROOT
ATOM      1  N   ILE     1      47.540  49.824  40.860  1.00  0.00    -0.058 N 
ATOM      2  H1  ILE     1      48.433  49.892  40.418  1.00 99.99     0.276 HD
ATOM      3  H2  ILE     1      47.324  50.706  41.277  1.00 99.99     0.276 HD
ATOM      4  H3  ILE     1      47.582  49.200  41.637  1.00 99.99     0.276 HD
ENDROOT
BRANCH   1   5
ATOM      5  CA  ILE     1      46.486  49.414  39.884  1.00  0.00     0.255 C 
BRANCH   5   6
ATOM      6  CB  ILE     1      46.033  50.598  38.998  1.00  0.00     0.037 C 
ATOM      7  CG2 ILE     1      44.707  50.265  38.301  1.00  0.00     0.002 C 
BRANCH   6   8
ATOM      8  CG1 ILE     1      46.025  51.932  39.768  1.00  0.00     0.002 C 
ATOM      9  CD  ILE     1      46.029  53.179  38.875  1.00  0.00     0.000 C 
ENDBRANCH   6   8
ENDBRANCH   5   6
BRANCH   5  10
ATOM     10  C   ILE     1      46.769  48.187  38.967  1.00  0.00     0.259 C 
ATOM     11  O   ILE     1      46.127  47.143  39.108  1.00  0.00    -0.271 OA
ATOM     12  N   LEU     2      47.866  48.231  38.203  1.00  0.00    -0.338 N 
ATOM     13  H   LEU     2      48.561  48.938  38.315  1.00 99.99     0.164 HD
BRANCH  12  14
ATOM     14  CA  LEU     2      48.133  47.254  37.119  1.00  0.00     0.159 C 
BRANCH  14  15
ATOM     15  C   LEU     2      49.489  46.524  37.218  1.00  0.00     0.251 C 
ATOM     16  N   GLY     3      49.459  45.193  37.036  1.00  0.00    -0.336 N 
ATOM     17  H   GLY     3      48.607  44.660  37.050  1.00 99.99     0.164 HD
ATOM     18  O   LEU     2      50.523  47.188  37.280  1.00  0.00    -0.271 OA
BRANCH  16  19
ATOM     19  CA  GLY     3      50.666  44.336  36.984  1.00  0.00     0.189 C 
BRANCH  19  20
ATOM     20  C   GLY     3      50.458  43.030  36.199  1.00  0.00     0.253 C 
ATOM     21  N   LYS     4      51.465  42.152  36.230  1.00  0.00    -0.337 N 
ATOM     22  H   LYS     4      52.329  42.357  36.682  1.00 99.99     0.164 HD
ATOM     23  O   GLY     3      49.343  42.763  35.763  1.00  0.00    -0.270 OA
BRANCH  21  24
ATOM     24  CA  LYS     4      51.411  40.831  35.562  1.00  0.00     0.159 C 
BRANCH  24  25
ATOM     25  C   LYS     4      51.199  39.669  36.553  1.00  0.00     0.251 C 
ATOM     26  O   LYS     4      50.223  39.688  37.298  1.00  0.00    -0.271 OA
ATOM     27  N   LEU     5      52.184  38.775  36.667  1.00  0.00    -0.338 N 
ATOM     28  H   LEU     5      53.016  38.821  36.110  1.00 99.99     0.164 HD
BRANCH  27  29
ATOM     29  CA  LEU     5      52.130  37.650  37.623  1.00  0.00     0.159 C 
BRANCH  29  30
ATOM     30  CB  LEU     5      51.557  36.407  36.928  1.00  0.00     0.032 C 
BRANCH  30  31
ATOM     31  CG  LEU     5      50.364  35.774  37.661  1.00  0.00     0.002 C 
ATOM     32  CD1 LEU     5      50.639  35.584  39.156  1.00  0.00     0.000 C 
ATOM     33  CD2 LEU     5      49.119  36.637  37.452  1.00  0.00     0.000 C 
ENDBRANCH  30  31
ENDBRANCH  29  30
BRANCH  29  34
ATOM     34  C   LEU     5      53.503  37.371  38.265  1.00  0.00     0.251 C 
ATOM     35  N   LEU     6      54.002  38.331  39.047  1.00  0.00    -0.338 N 
ATOM     36  H   LEU     6      53.559  39.229  39.130  1.00 99.99     0.164 HD
ATOM     37  O   LEU     5      53.982  36.241  38.190  1.00  0.00    -0.271 OA
BRANCH  35  38
ATOM     38  CA  LEU     6      55.243  38.172  39.832  1.00  0.00     0.159 C 
BRANCH  38  39
ATOM     39  C   LEU     6      56.514  38.400  38.998  1.00  0.00     0.251 C 
ATOM     40  N   SER     7      57.287  39.431  39.349  1.00  0.00    -0.336 N 
ATOM     41  H   SER     7      56.973  40.129  40.001  1.00 99.99     0.164 HD
ATOM     42  O   LEU     6      56.863  37.535  38.199  1.00  0.00    -0.271 OA
BRANCH  40  43
ATOM     43  CA  SER     7      58.591  39.737  38.718  1.00  0.00     0.189 C 
BRANCH  43  44
ATOM     44  C   SER     7      59.629  40.238  39.733  1.00  0.00     0.254 C 
ATOM     45  O   SER     7      60.727  39.686  39.797  1.00  0.00    -0.270 OA
ATOM     46  N   THR     8      59.228  41.170  40.603  1.00  0.00    -0.336 N 
ATOM     47  H   THR     8      58.335  41.627  40.523  1.00 99.99     0.164 HD
BRANCH  46  48
ATOM     48  CA  THR     8      60.103  41.709  41.670  1.00  0.00     0.186 C 
BRANCH  48  49
ATOM     49  C   THR     8      59.667  41.200  43.056  1.00  0.00     0.253 C 
ATOM     50  N   ALA     9      60.563  41.291  44.042  1.00  0.00    -0.337 N 
ATOM     51  H   ALA     9      61.497  41.624  43.883  1.00 99.99     0.164 HD
ATOM     52  O   THR     8      58.512  40.814  43.222  1.00  0.00    -0.270 OA
BRANCH  50  53
ATOM     53  CA  ALA     9      60.283  40.869  45.432  1.00  0.00     0.159 C 
ATOM     54  CB  ALA     9      61.566  40.351  46.090  1.00  0.00     0.034 C 
BRANCH  53  55
ATOM     55  C   ALA     9      59.651  41.993  46.271  1.00  0.00     0.251 C 
ATOM     56  O   ALA     9      59.899  43.166  45.993  1.00  0.00    -0.271 OA
ATOM     57  N   ALA    10      59.053  41.617  47.404  1.00  0.00    -0.338 N 
ATOM     58  H   ALA    10      58.940  40.647  47.647  1.00 99.99     0.164 HD
BRANCH  57  59
ATOM     59  CA  ALA    10      58.468  42.563  48.377  1.00  0.00     0.159 C 
ATOM     60  CB  ALA    10      57.070  42.988  47.918  1.00  0.00     0.034 C 
BRANCH  59  61
ATOM     61  C   ALA    10      58.411  41.968  49.794  1.00  0.00     0.251 C 
ATOM     62  N   GLY    11      57.441  42.441  50.595  1.00  0.00    -0.336 N 
ATOM     63  H   GLY    11      56.859  43.232  50.355  1.00 99.99     0.164 HD
ATOM     64  O   ALA    10      59.061  40.957  50.043  1.00  0.00    -0.271 OA
BRANCH  62  65
ATOM     65  CA  GLY    11      57.174  41.916  51.953  1.00  0.00     0.189 C 
BRANCH  65  66
ATOM     66  C   GLY    11      58.382  42.081  52.889  1.00  0.00     0.253 C 
ATOM     67  O   GLY    11      58.833  43.199  53.128  1.00  0.00    -0.270 OA
ATOM     68  N   LEU    12      59.001  40.955  53.242  1.00  0.00    -0.337 N 
ATOM     69  H   LEU    12      58.650  40.052  52.971  1.00 99.99     0.164 HD
BRANCH  68  70
ATOM     70  CA  LEU    12      60.210  40.925  54.090  1.00  0.00     0.159 C 
BRANCH  70  71
ATOM     71  C   LEU    12      61.477  41.359  53.323  1.00  0.00     0.251 C 
ATOM     72  O   LEU    12      62.306  42.078  53.880  1.00  0.00    -0.271 OA
ATOM     73  N   LEU    13      61.496  41.100  52.014  1.00  0.00    -0.338 N 
ATOM     74  H   LEU    13      60.745  40.605  51.565  1.00 99.99     0.164 HD
BRANCH  73  75
ATOM     75  CA  LEU    13      62.608  41.475  51.112  1.00  0.00     0.159 C 
BRANCH  75  76
ATOM     76  C   LEU    13      62.519  42.875  50.474  1.00  0.00     0.251 C 
ATOM     77  N   SER    14      63.671  43.445  50.123  1.00  0.00    -0.336 N 
ATOM     78  H   SER    14      64.543  43.113  50.491  1.00 99.99     0.164 HD
ATOM     79  O   LEU    13      61.430  43.440  50.407  1.00  0.00    -0.271 OA
BRANCH  77  80
ATOM     80  CA  SER    14      63.776  44.743  49.413  1.00  0.00     0.189 C 
BRANCH  80  81
ATOM     81  C   SER    14      64.562  44.697  48.092  1.00  0.00     0.254 C 
ATOM     82  O   SER    14      65.482  45.489  47.902  1.00  0.00    -0.270 OA
ATOM     83  N   ASN    15      64.334  43.645  47.302  1.00  0.00    -0.337 N 
ATOM     84  H   ASN    15      63.815  42.855  47.634  1.00 99.99     0.164 HD
BRANCH  83  85
ATOM     85  CA  ASN    15      64.959  43.465  45.969  1.00  0.00     0.169 C 
BRANCH  85  86
ATOM     86  CB  ASN    15      66.222  42.602  46.067  1.00  0.00     0.119 C 
BRANCH  86  87
ATOM     87  CG  ASN    15      67.543  43.304  45.731  1.00  0.00     0.230 C 
ATOM     88  OD1 ASN    15      68.017  44.234  46.366  1.00  0.00    -0.273 OA
ATOM     89  ND2 ASN    15      68.140  42.874  44.641  1.00  0.00    -0.369 N 
ATOM     90 1HD2 ASN    15      68.994  43.318  44.395  1.00 99.99     0.159 HD
ATOM     91 2HD2 ASN    15      67.746  42.123  44.123  1.00 99.99     0.159 HD
ENDBRANCH  86  87
ENDBRANCH  85  86
BRANCH  85  92
ATOM     92  C   ASN    15      64.033  42.851  44.899  1.00  0.00     0.251 C 
ATOM     93  O   ASN    15      62.886  43.269  44.751  1.00  0.00    -0.271 OA
ATOM     94  N   LEU    16      64.627  42.056  44.012  1.00  0.00    -0.336 N 
ATOM     95  H   LEU    16      65.620  41.936  44.023  1.00 99.99     0.164 HD
BRANCH  94  96
ATOM     96  CA  LEU    16      63.941  41.338  42.917  1.00  0.00     0.168 C 
BRANCH  96  97
ATOM     97  CB  LEU    16      64.681  41.729  41.630  1.00  0.00     0.033 C 
BRANCH  97  98
ATOM     98  CG  LEU    16      64.546  40.758  40.451  1.00  0.00     0.002 C 
ATOM     99  CD1 LEU    16      63.734  41.367  39.303  1.00  0.00     0.000 C 
ATOM    100  CD2 LEU    16      65.941  40.360  39.967  1.00  0.00     0.000 C 
ENDBRANCH  97  98
ENDBRANCH  96  97
BRANCH  96 101
ATOM    101  C   LEU    16      63.917  39.806  43.113  1.00  0.00     0.206 C 
ATOM    102  O   LEU    16      64.973  39.254  43.491  1.00 99.99    -0.646 OA
ATOM    103  OXT LEU    16      62.827  39.228  42.914  1.00 99.99    -0.646 OA
ENDBRANCH  96 101
ENDBRANCH  94  96
ENDBRANCH  85  92
ENDBRANCH  83  85
ENDBRANCH  80  81
BRANCH  80 104
ATOM    104  CB  SER    14      64.430  45.809  50.298  1.00  0.00     0.169 C 
BRANCH 104 105
ATOM    105  OG  SER    14      64.108  47.129  49.851  1.00  0.00    -0.380 OA
ATOM    106  HG  SER    14      64.393  47.222  48.900  1.00 99.99     0.211 HD
ENDBRANCH 104 105
ENDBRANCH  80 104
ENDBRANCH  77  80
ENDBRANCH  75  76
BRANCH  75 107
ATOM    107  CB  LEU    13      62.782  40.415  50.017  1.00  0.00     0.032 C 
BRANCH 107 108
ATOM    108  CG  LEU    13      64.222  39.902  49.883  1.00  0.00     0.002 C 
ATOM    109  CD2 LEU    13      64.794  40.183  48.488  1.00  0.00     0.000 C 
ATOM    110  CD1 LEU    13      64.249  38.398  50.154  1.00  0.00     0.000 C 
ENDBRANCH 107 108
ENDBRANCH  75 107
ENDBRANCH  73  75
ENDBRANCH  70  71
BRANCH  70 111
ATOM    111  CB  LEU    12      60.349  39.515  54.686  1.00  0.00     0.032 C 
BRANCH 111 112
ATOM    112  CG  LEU    12      59.637  38.413  53.890  1.00  0.00     0.002 C 
ATOM    113  CD1 LEU    12      60.571  37.743  52.877  1.00  0.00     0.000 C 
ATOM    114  CD2 LEU    12      59.069  37.374  54.858  1.00  0.00     0.000 C 
ENDBRANCH 111 112
ENDBRANCH  70 111
ENDBRANCH  68  70
ENDBRANCH  65  66
ENDBRANCH  62  65
ENDBRANCH  59  61
ENDBRANCH  57  59
ENDBRANCH  53  55
ENDBRANCH  50  53
ENDBRANCH  48  49
BRANCH  48 115
ATOM    115  CB  THR     8      60.151  43.250  41.668  1.00  0.00     0.140 C 
ATOM    116  CG2 THR     8      59.539  43.847  40.394  1.00  0.00     0.034 C 
BRANCH 115 117
ATOM    117  OG1 THR     8      59.428  43.760  42.791  1.00  0.00    -0.382 OA
ATOM    118  HG1 THR     8      59.917  44.550  43.165  1.00 99.99     0.210 HD
ENDBRANCH 115 117
ENDBRANCH  48 115
ENDBRANCH  46  48
ENDBRANCH  43  44
BRANCH  43 119
ATOM    119  CB  SER     7      58.454  40.793  37.615  1.00  0.00     0.169 C 
BRANCH 119 120
ATOM    120  OG  SER     7      59.577  41.676  37.599  1.00  0.00    -0.380 OA
ATOM    121  HG  SER     7      59.261  42.606  37.790  1.00 99.99     0.211 HD
ENDBRANCH 119 120
ENDBRANCH  43 119
ENDBRANCH  40  43
ENDBRANCH  38  39
BRANCH  38 122
ATOM    122  CB  LEU     6      55.293  36.799  40.514  1.00  0.00     0.032 C 
BRANCH 122 123
ATOM    123  CG  LEU     6      55.520  36.872  42.032  1.00  0.00     0.002 C 
ATOM    124  CD2 LEU     6      54.806  38.078  42.654  1.00  0.00     0.000 C 
ATOM    125  CD1 LEU     6      57.019  36.964  42.317  1.00  0.00     0.000 C 
ENDBRANCH 122 123
ENDBRANCH  38 122
ENDBRANCH  35  38
ENDBRANCH  29  34
ENDBRANCH  27  29
ENDBRANCH  24  25
BRANCH  24 126
ATOM    126  CB  LYS     4      52.672  40.602  34.712  1.00  0.00     0.032 C 
BRANCH 126 127
ATOM    127  CG  LYS     4      53.597  41.826  34.738  1.00  0.00     0.004 C 
BRANCH 127 128
ATOM    128  CD  LYS     4      55.043  41.507  34.350  1.00  0.00     0.032 C 
BRANCH 128 129
ATOM    129  CE  LYS     4      55.930  42.724  34.628  1.00  0.00     0.206 C 
BRANCH 129 130
ATOM    130  NZ  LYS     4      57.058  42.825  33.688  1.00  0.00    -0.064 N 
ATOM    131  HZ1 LYS     4      56.916  43.609  33.083  1.00 99.99     0.275 HD
ATOM    132  HZ2 LYS     4      57.910  42.956  34.195  1.00 99.99     0.275 HD
ATOM    133  HZ3 LYS     4      57.119  41.993  33.138  1.00 99.99     0.275 HD
ENDBRANCH 129 130
ENDBRANCH 128 129
ENDBRANCH 127 128
ENDBRANCH 126 127
ENDBRANCH  24 126
ENDBRANCH  21  24
ENDBRANCH  19  20
ENDBRANCH  16  19
ENDBRANCH  14  15
BRANCH  14 134
ATOM    134  CB  LEU     2      47.938  47.925  35.749  1.00  0.00     0.032 C 
BRANCH 134 135
ATOM    135  CG  LEU     2      48.349  49.406  35.714  1.00  0.00     0.002 C 
ATOM    136  CD2 LEU     2      47.138  50.270  35.356  1.00  0.00     0.000 C 
ATOM    137  CD1 LEU     2      49.492  49.663  34.725  1.00  0.00     0.000 C 
ENDBRANCH 134 135
ENDBRANCH  14 134
ENDBRANCH  12  14
ENDBRANCH   5  10
ENDBRANCH   1   5
TORSDOF 59
ENDMDL
MODEL 7
REMARK VINA RESULT:      -4.0      3.010      5.934
REMARK WARNING: 32 MAX_TORS EXCEEDED!!!
REMARK  59 active torsions:
REMARK  status: ('A' for Active; 'I' for Inactive)
REMARK    1  A    between atoms: N_1  and  CA_2 
REMARK    2  A    between atoms: CA_2  and  CB_5 
REMARK    3  A    between atoms: CA_2  and  C_3 
REMARK       I    between atoms: C_3  and  N_12 
REMARK    4  A    between atoms: CB_5  and  CG1_6 
REMARK    5  A    between atoms: N_12  and  CA_13 
REMARK    6  A    between atoms: CA_13  and  C_14 
REMARK    7  A    between atoms: CA_13  and  CB_16 
REMARK       I    between atoms: C_14  and  N_21 
REMARK    8  A    between atoms: CB_16  and  CG_17 
REMARK    9  A    between atoms: N_21  and  CA_22 
REMARK   10  A    between atoms: CA_22  and  C_23 
REMARK       I    between atoms: C_23  and  N_26 
REMARK   11  A    between atoms: N_26  and  CA_27 
REMARK   12  A    between atoms: CA_27  and  C_28 
REMARK   13  A    between atoms: CA_27  and  CB_30 
REMARK       I    between atoms: C_28  and  N_39 
REMARK   14  A    between atoms: CB_30  and  CG_31 
REMARK   15  A    between atoms: CG_31  and  CD_32 
REMARK   16  A    between atoms: CD_32  and  CE_33 
REMARK   17  A    between atoms: CE_33  and  NZ_34 
REMARK   18  A    between atoms: N_39  and  CA_40 
REMARK   19  A    between atoms: CA_40  and  CB_43 
REMARK   20  A    between atoms: CA_40  and  C_41 
REMARK       I    between atoms: C_41  and  N_48 
REMARK   21  A    between atoms: CB_43  and  CG_44 
REMARK   22  A    between atoms: N_48  and  CA_49 
REMARK   23  A    between atoms: CA_49  and  C_50 
REMARK   24  A    between atoms: CA_49  and  CB_52 
REMARK       I    between atoms: C_50  and  N_57 
REMARK   25  A    between atoms: CB_52  and  CG_53 
REMARK   26  A    between atoms: N_57  and  CA_58 
REMARK   27  A    between atoms: CA_58  and  C_59 
REMARK   28  A    between atoms: CA_58  and  CB_61 
REMARK       I    between atoms: C_59  and  N_65 
REMARK   29  A    between atoms: CB_61  and  OG_62 
REMARK   30  A    between atoms: N_65  and  CA_66 
REMARK   31  A    between atoms: CA_66  and  C_67 
REMARK   32  A    between atoms: CA_66  and  CB_69 
REMARK       I    between atoms: C_67  and  N_74 
REMARK   33  A    between atoms: CB_69  and  OG1_70 
REMARK   34  A    between atoms: N_74  and  CA_75 
REMARK   35  A    between atoms: CA_75  and  C_76 
REMARK       I    between atoms: C_76  and  N_80 
REMARK   36  A    between atoms: N_80  and  CA_81 
REMARK   37  A    between atoms: CA_81  and  C_82 
REMARK       I    between atoms: C_82  and  N_86 
REMARK   38  A    between atoms: N_86  and  CA_87 
REMARK   39  A    between atoms: CA_87  and  C_88 
REMARK       I    between atoms: C_88  and  N_91 
REMARK   40  A    between atoms: N_91  and  CA_92 
REMARK   41  A    between atoms: CA_92  and  C_93 
REMARK   42  A    between atoms: CA_92  and  CB_95 
REMARK       I    between atoms: C_93  and  N_100 
REMARK   43  A    between atoms: CB_95  and  CG_96 
REMARK   44  A    between atoms: N_100  and  CA_101 
REMARK   45  A    between atoms: CA_101  and  C_102 
REMARK   46  A    between atoms: CA_101  and  CB_104 
REMARK       I    between atoms: C_102  and  N_109 
REMARK   47  A    between atoms: CB_104  and  CG_105 
REMARK   48  A    between atoms: N_109  and  CA_110 
REMARK   49  A    between atoms: CA_110  and  C_111 
REMARK   50  A    between atoms: CA_110  and  CB_113 
REMARK       I    between atoms: C_111  and  N_117 
REMARK   51  A    between atoms: CB_113  and  OG_114 
REMARK   52  A    between atoms: N_117  and  CA_118 
REMARK   53  A    between atoms: CA_118  and  CB_121 
REMARK   54  A    between atoms: CA_118  and  C_119 
REMARK       I    between atoms: C_119  and  N_128 
REMARK   55  A    between atoms: CB_121  and  CG_122 
REMARK       I    between atoms: CG_122  and  ND2_124 
REMARK   56  A    between atoms: N_128  and  CA_129 
REMARK   57  A    between atoms: CA_129  and  CB_132 
REMARK   58  A    between atoms: CA_129  and  C_130 
REMARK   59  A    between atoms: CB_132  and  CG_133 
ROOT
ATOM      1  N   ILE     1      68.605  43.980  59.945  1.00  0.00    -0.058 N 
ATOM      2  H1  ILE     1      67.932  43.252  60.062  1.00 99.99     0.276 HD
ATOM      3  H2  ILE     1      69.427  43.740  60.460  1.00 99.99     0.276 HD
ATOM      4  H3  ILE     1      68.289  44.820  60.381  1.00 99.99     0.276 HD
ENDROOT
BRANCH   1   5
ATOM      5  CA  ILE     1      68.915  44.197  58.500  1.00  0.00     0.255 C 
BRANCH   5   6
ATOM      6  CB  ILE     1      70.358  43.766  58.152  1.00  0.00     0.037 C 
ATOM      7  CG2 ILE     1      71.369  44.751  58.755  1.00  0.00     0.002 C 
BRANCH   6   8
ATOM      8  CG1 ILE     1      70.626  42.290  58.505  1.00  0.00     0.002 C 
ATOM      9  CD  ILE     1      71.710  42.079  59.568  1.00  0.00     0.000 C 
ENDBRANCH   6   8
ENDBRANCH   5   6
BRANCH   5  10
ATOM     10  C   ILE     1      67.947  43.594  57.440  1.00  0.00     0.259 C 
ATOM     11  O   ILE     1      67.792  44.148  56.349  1.00  0.00    -0.271 OA
ATOM     12  N   LEU     2      67.133  42.610  57.841  1.00  0.00    -0.338 N 
ATOM     13  H   LEU     2      67.030  42.367  58.803  1.00 99.99     0.164 HD
BRANCH  12  14
ATOM     14  CA  LEU     2      66.337  41.787  56.897  1.00  0.00     0.159 C 
BRANCH  14  15
ATOM     15  C   LEU     2      64.826  42.102  56.872  1.00  0.00     0.251 C 
ATOM     16  N   GLY     3      64.029  41.138  56.381  1.00  0.00    -0.336 N 
ATOM     17  H   GLY     3      64.380  40.353  55.862  1.00 99.99     0.164 HD
ATOM     18  O   LEU     2      64.416  43.111  57.446  1.00  0.00    -0.271 OA
BRANCH  16  19
ATOM     19  CA  GLY     3      62.549  41.210  56.377  1.00  0.00     0.189 C 
BRANCH  19  20
ATOM     20  C   GLY     3      61.883  40.192  57.318  1.00  0.00     0.253 C 
ATOM     21  N   LYS     4      60.781  40.602  57.952  1.00  0.00    -0.337 N 
ATOM     22  H   LYS     4      60.443  41.537  57.871  1.00 99.99     0.164 HD
ATOM     23  O   GLY     3      62.253  39.022  57.296  1.00  0.00    -0.270 OA
BRANCH  21  24
ATOM     24  CA  LYS     4      59.997  39.736  58.861  1.00  0.00     0.159 C 
BRANCH  24  25
ATOM     25  C   LYS     4      58.777  39.093  58.171  1.00  0.00     0.251 C 
ATOM     26  O   LYS     4      58.732  37.872  58.050  1.00  0.00    -0.271 OA
ATOM     27  N   LEU     5      57.903  39.914  57.586  1.00  0.00    -0.338 N 
ATOM     28  H   LEU     5      57.999  40.912  57.619  1.00 99.99     0.164 HD
BRANCH  27  29
ATOM     29  CA  LEU     5      56.726  39.422  56.840  1.00  0.00     0.159 C 
BRANCH  29  30
ATOM     30  CB  LEU     5      55.481  40.222  57.251  1.00  0.00     0.032 C 
BRANCH  30  31
ATOM     31  CG  LEU     5      54.759  39.663  58.486  1.00  0.00     0.002 C 
ATOM     32  CD1 LEU     5      54.948  38.150  58.632  1.00  0.00     0.000 C 
ATOM     33  CD2 LEU     5      55.253  40.387  59.739  1.00  0.00     0.000 C 
ENDBRANCH  30  31
ENDBRANCH  29  30
BRANCH  29  34
ATOM     34  C   LEU     5      56.954  39.453  55.316  1.00  0.00     0.251 C 
ATOM     35  N   LEU     6      56.740  40.620  54.704  1.00  0.00    -0.338 N 
ATOM     36  H   LEU     6      56.350  41.408  55.190  1.00 99.99     0.164 HD
ATOM     37  O   LEU     5      57.488  38.489  54.769  1.00  0.00    -0.271 OA
BRANCH  35  38
ATOM     38  CA  LEU     6      57.031  40.850  53.274  1.00  0.00     0.159 C 
BRANCH  38  39
ATOM     39  C   LEU     6      55.850  40.492  52.357  1.00  0.00     0.251 C 
ATOM     40  N   SER     7      55.941  40.876  51.082  1.00  0.00    -0.336 N 
ATOM     41  H   SER     7      56.649  41.520  50.773  1.00 99.99     0.164 HD
ATOM     42  O   LEU     6      54.992  39.714  52.769  1.00  0.00    -0.271 OA
BRANCH  40  43
ATOM     43  CA  SER     7      54.943  40.532  50.043  1.00  0.00     0.189 C 
BRANCH  43  44
ATOM     44  C   SER     7      55.598  40.100  48.722  1.00  0.00     0.254 C 
ATOM     45  O   SER     7      55.644  38.906  48.434  1.00  0.00    -0.270 OA
ATOM     46  N   THR     8      56.217  41.048  48.013  1.00  0.00    -0.336 N 
ATOM     47  H   THR     8      56.151  42.024  48.251  1.00 99.99     0.164 HD
BRANCH  46  48
ATOM     48  CA  THR     8      56.937  40.770  46.748  1.00  0.00     0.186 C 
BRANCH  48  49
ATOM     49  C   THR     8      58.132  41.723  46.566  1.00  0.00     0.253 C 
ATOM     50  N   ALA     9      59.304  41.324  47.066  1.00  0.00    -0.337 N 
ATOM     51  H   ALA     9      59.398  40.469  47.585  1.00 99.99     0.164 HD
ATOM     52  O   THR     8      57.988  42.754  45.913  1.00  0.00    -0.270 OA
BRANCH  50  53
ATOM     53  CA  ALA     9      60.547  42.117  46.948  1.00  0.00     0.159 C 
ATOM     54  CB  ALA     9      60.628  42.761  45.561  1.00  0.00     0.034 C 
BRANCH  53  55
ATOM     55  C   ALA     9      60.673  43.178  48.055  1.00  0.00     0.251 C 
ATOM     56  O   ALA     9      60.059  44.238  47.947  1.00  0.00    -0.271 OA
ATOM     57  N   ALA    10      61.635  42.974  48.959  1.00  0.00    -0.338 N 
ATOM     58  H   ALA    10      62.181  42.129  48.970  1.00 99.99     0.164 HD
BRANCH  57  59
ATOM     59  CA  ALA    10      61.960  43.927  50.041  1.00  0.00     0.159 C 
ATOM     60  CB  ALA    10      62.541  43.177  51.243  1.00  0.00     0.034 C 
BRANCH  59  61
ATOM     61  C   ALA    10      62.933  45.021  49.568  1.00  0.00     0.251 C 
ATOM     62  N   GLY    11      64.010  44.599  48.884  1.00  0.00    -0.336 N 
ATOM     63  H   GLY    11      64.260  43.623  48.788  1.00 99.99     0.164 HD
ATOM     64  O   ALA    10      62.579  46.196  49.615  1.00  0.00    -0.271 OA
BRANCH  62  65
ATOM     65  CA  GLY    11      64.998  45.513  48.269  1.00  0.00     0.189 C 
BRANCH  65  66
ATOM     66  C   GLY    11      65.955  44.780  47.316  1.00  0.00     0.253 C 
ATOM     67  O   GLY    11      67.042  45.277  47.026  1.00  0.00    -0.270 OA
ATOM     68  N   LEU    12      65.454  43.712  46.697  1.00  0.00    -0.337 N 
ATOM     69  H   LEU    12      64.531  43.368  46.901  1.00 99.99     0.164 HD
BRANCH  68  70
ATOM     70  CA  LEU    12      66.210  42.919  45.707  1.00  0.00     0.159 C 
BRANCH  70  71
ATOM     71  C   LEU    12      65.344  42.513  44.494  1.00  0.00     0.251 C 
ATOM     72  O   LEU    12      64.125  42.411  44.627  1.00  0.00    -0.271 OA
ATOM     73  N   LEU    13      66.001  42.084  43.415  1.00  0.00    -0.338 N 
ATOM     74  H   LEU    13      67.006  42.075  43.379  1.00 99.99     0.164 HD
BRANCH  73  75
ATOM     75  CA  LEU    13      65.340  41.620  42.174  1.00  0.00     0.159 C 
BRANCH  75  76
ATOM     76  C   LEU    13      64.413  40.397  42.319  1.00  0.00     0.251 C 
ATOM     77  N   SER    14      63.105  40.621  42.190  1.00  0.00    -0.336 N 
ATOM     78  H   SER    14      62.732  41.549  42.266  1.00 99.99     0.164 HD
ATOM     79  O   LEU    13      64.891  39.312  42.639  1.00  0.00    -0.271 OA
BRANCH  77  80
ATOM     80  CA  SER    14      62.074  39.556  42.205  1.00  0.00     0.189 C 
BRANCH  80  81
ATOM     81  C   SER    14      60.886  39.792  41.257  1.00  0.00     0.254 C 
ATOM     82  O   SER    14      60.013  38.934  41.148  1.00  0.00    -0.270 OA
ATOM     83  N   ASN    15      60.759  41.023  40.758  1.00  0.00    -0.337 N 
ATOM     84  H   ASN    15      61.305  41.783  41.119  1.00 99.99     0.164 HD
BRANCH  83  85
ATOM     85  CA  ASN    15      59.710  41.416  39.788  1.00  0.00     0.169 C 
BRANCH  85  86
ATOM     86  CB  ASN    15      58.792  42.494  40.376  1.00  0.00     0.119 C 
BRANCH  86  87
ATOM     87  CG  ASN    15      59.149  42.983  41.785  1.00  0.00     0.230 C 
ATOM     88  OD1 ASN    15      60.070  43.744  42.043  1.00  0.00    -0.273 OA
ATOM     89  ND2 ASN    15      58.417  42.477  42.752  1.00  0.00    -0.369 N 
ATOM     90 1HD2 ASN    15      58.632  42.771  43.676  1.00 99.99     0.159 HD
ATOM     91 2HD2 ASN    15      57.675  41.851  42.537  1.00 99.99     0.159 HD
ENDBRANCH  86  87
ENDBRANCH  85  86
BRANCH  85  92
ATOM     92  C   ASN    15      60.242  41.920  38.430  1.00  0.00     0.251 C 
ATOM     93  O   ASN    15      60.169  41.211  37.427  1.00  0.00    -0.271 OA
ATOM     94  N   LEU    16      60.526  43.219  38.370  1.00  0.00    -0.336 N 
ATOM     95  H   LEU    16      60.335  43.817  39.148  1.00 99.99     0.164 HD
BRANCH  94  96
ATOM     96  CA  LEU    16      61.071  43.919  37.187  1.00  0.00     0.168 C 
BRANCH  96  97
ATOM     97  CB  LEU    16      62.357  43.169  36.812  1.00  0.00     0.033 C 
BRANCH  97  98
ATOM     98  CG  LEU    16      63.613  44.029  36.632  1.00  0.00     0.002 C 
ATOM     99  CD1 LEU    16      64.368  43.672  35.348  1.00  0.00     0.000 C 
ATOM    100  CD2 LEU    16      63.212  45.506  36.623  1.00  0.00     0.000 C 
ENDBRANCH  97  98
ENDBRANCH  96  97
BRANCH  96 101
ATOM    101  C   LEU    16      60.082  43.974  36.002  1.00  0.00     0.206 C 
ATOM    102  O   LEU    16      58.914  44.352  36.238  1.00 99.99    -0.646 OA
ATOM    103  OXT LEU    16      60.531  43.668  34.876  1.00 99.99    -0.646 OA
ENDBRANCH  96 101
ENDBRANCH  94  96
ENDBRANCH  85  92
ENDBRANCH  83  85
ENDBRANCH  80  81
BRANCH  80 104
ATOM    104  CB  SER    14      61.503  39.354  43.613  1.00  0.00     0.169 C 
BRANCH 104 105
ATOM    105  OG  SER    14      60.216  39.964  43.749  1.00  0.00    -0.380 OA
ATOM    106  HG  SER    14      60.237  40.855  43.299  1.00 99.99     0.211 HD
ENDBRANCH 104 105
ENDBRANCH  80 104
ENDBRANCH  77  80
ENDBRANCH  75  76
BRANCH  75 107
ATOM    107  CB  LEU    13      66.385  41.353  41.084  1.00  0.00     0.032 C 
BRANCH 107 108
ATOM    108  CG  LEU    13      65.829  40.591  39.874  1.00  0.00     0.002 C 
ATOM    109  CD2 LEU    13      66.899  39.708  39.223  1.00  0.00     0.000 C 
ATOM    110  CD1 LEU    13      65.297  41.592  38.848  1.00  0.00     0.000 C 
ENDBRANCH 107 108
ENDBRANCH  75 107
ENDBRANCH  73  75
ENDBRANCH  70  71
BRANCH  70 111
ATOM    111  CB  LEU    12      66.813  41.699  46.420  1.00  0.00     0.032 C 
BRANCH 111 112
ATOM    112  CG  LEU    12      68.325  41.529  46.226  1.00  0.00     0.002 C 
ATOM    113  CD1 LEU    12      69.129  42.477  47.123  1.00  0.00     0.000 C 
ATOM    114  CD2 LEU    12      68.715  40.077  46.506  1.00  0.00     0.000 C 
ENDBRANCH 111 112
ENDBRANCH  70 111
ENDBRANCH  68  70
ENDBRANCH  65  66
ENDBRANCH  62  65
ENDBRANCH  59  61
ENDBRANCH  57  59
ENDBRANCH  53  55
ENDBRANCH  50  53
ENDBRANCH  48  49
BRANCH  48 115
ATOM    115  CB  THR     8      56.012  40.847  45.517  1.00  0.00     0.140 C 
ATOM    116  CG2 THR     8      56.390  39.819  44.442  1.00  0.00     0.034 C 
BRANCH 115 117
ATOM    117  OG1 THR     8      54.659  40.603  45.911  1.00  0.00    -0.382 OA
ATOM    118  HG1 THR     8      54.105  41.409  45.699  1.00 99.99     0.210 HD
ENDBRANCH 115 117
ENDBRANCH  48 115
ENDBRANCH  46  48
ENDBRANCH  43  44
BRANCH  43 119
ATOM    119  CB  SER     7      54.003  41.708  49.747  1.00  0.00     0.169 C 
BRANCH 119 120
ATOM    120  OG  SER     7      54.667  42.961  49.925  1.00  0.00    -0.380 OA
ATOM    121  HG  SER     7      55.613  42.872  49.615  1.00 99.99     0.211 HD
ENDBRANCH 119 120
ENDBRANCH  43 119
ENDBRANCH  40  43
ENDBRANCH  38  39
BRANCH  38 122
ATOM    122  CB  LEU     6      58.292  40.094  52.838  1.00  0.00     0.032 C 
BRANCH 122 123
ATOM    123  CG  LEU     6      59.425  41.011  52.354  1.00  0.00     0.002 C 
ATOM    124  CD2 LEU     6      59.164  42.477  52.724  1.00  0.00     0.000 C 
ATOM    125  CD1 LEU     6      59.566  40.887  50.837  1.00  0.00     0.000 C 
ENDBRANCH 122 123
ENDBRANCH  38 122
ENDBRANCH  35  38
ENDBRANCH  29  34
ENDBRANCH  27  29
ENDBRANCH  24  25
BRANCH  24 126
ATOM    126  CB  LYS     4      59.568  40.514  60.116  1.00  0.00     0.032 C 
BRANCH 126 127
ATOM    127  CG  LYS     4      59.600  42.029  59.876  1.00  0.00     0.004 C 
BRANCH 127 128
ATOM    128  CD  LYS     4      58.449  42.779  60.549  1.00  0.00     0.032 C 
BRANCH 128 129
ATOM    129  CE  LYS     4      57.666  43.571  59.497  1.00  0.00     0.206 C 
BRANCH 129 130
ATOM    130  NZ  LYS     4      56.279  43.839  59.910  1.00  0.00    -0.064 N 
ATOM    131  HZ1 LYS     4      56.280  44.479  60.679  1.00 99.99     0.275 HD
ATOM    132  HZ2 LYS     4      55.773  44.245  59.149  1.00 99.99     0.275 HD
ATOM    133  HZ3 LYS     4      55.837  42.987  60.191  1.00 99.99     0.275 HD
ENDBRANCH 129 130
ENDBRANCH 128 129
ENDBRANCH 127 128
ENDBRANCH 126 127
ENDBRANCH  24 126
ENDBRANCH  21  24
ENDBRANCH  19  20
ENDBRANCH  16  19
ENDBRANCH  14  15
BRANCH  14 134
ATOM    134  CB  LEU     2      66.611  40.295  57.143  1.00  0.00     0.032 C 
BRANCH 134 135
ATOM    135  CG  LEU     2      67.544  39.652  56.106  1.00  0.00     0.002 C 
ATOM    136  CD2 LEU     2      68.923  39.416  56.726  1.00  0.00     0.000 C 
ATOM    137  CD1 LEU     2      67.673  40.505  54.838  1.00  0.00     0.000 C 
ENDBRANCH 134 135
ENDBRANCH  14 134
ENDBRANCH  12  14
ENDBRANCH   5  10
ENDBRANCH   1   5
TORSDOF 59
ENDMDL
MODEL 8
REMARK VINA RESULT:      -3.9      2.544      5.886
REMARK WARNING: 32 MAX_TORS EXCEEDED!!!
REMARK  59 active torsions:
REMARK  status: ('A' for Active; 'I' for Inactive)
REMARK    1  A    between atoms: N_1  and  CA_2 
REMARK    2  A    between atoms: CA_2  and  CB_5 
REMARK    3  A    between atoms: CA_2  and  C_3 
REMARK       I    between atoms: C_3  and  N_12 
REMARK    4  A    between atoms: CB_5  and  CG1_6 
REMARK    5  A    between atoms: N_12  and  CA_13 
REMARK    6  A    between atoms: CA_13  and  C_14 
REMARK    7  A    between atoms: CA_13  and  CB_16 
REMARK       I    between atoms: C_14  and  N_21 
REMARK    8  A    between atoms: CB_16  and  CG_17 
REMARK    9  A    between atoms: N_21  and  CA_22 
REMARK   10  A    between atoms: CA_22  and  C_23 
REMARK       I    between atoms: C_23  and  N_26 
REMARK   11  A    between atoms: N_26  and  CA_27 
REMARK   12  A    between atoms: CA_27  and  C_28 
REMARK   13  A    between atoms: CA_27  and  CB_30 
REMARK       I    between atoms: C_28  and  N_39 
REMARK   14  A    between atoms: CB_30  and  CG_31 
REMARK   15  A    between atoms: CG_31  and  CD_32 
REMARK   16  A    between atoms: CD_32  and  CE_33 
REMARK   17  A    between atoms: CE_33  and  NZ_34 
REMARK   18  A    between atoms: N_39  and  CA_40 
REMARK   19  A    between atoms: CA_40  and  CB_43 
REMARK   20  A    between atoms: CA_40  and  C_41 
REMARK       I    between atoms: C_41  and  N_48 
REMARK   21  A    between atoms: CB_43  and  CG_44 
REMARK   22  A    between atoms: N_48  and  CA_49 
REMARK   23  A    between atoms: CA_49  and  C_50 
REMARK   24  A    between atoms: CA_49  and  CB_52 
REMARK       I    between atoms: C_50  and  N_57 
REMARK   25  A    between atoms: CB_52  and  CG_53 
REMARK   26  A    between atoms: N_57  and  CA_58 
REMARK   27  A    between atoms: CA_58  and  C_59 
REMARK   28  A    between atoms: CA_58  and  CB_61 
REMARK       I    between atoms: C_59  and  N_65 
REMARK   29  A    between atoms: CB_61  and  OG_62 
REMARK   30  A    between atoms: N_65  and  CA_66 
REMARK   31  A    between atoms: CA_66  and  C_67 
REMARK   32  A    between atoms: CA_66  and  CB_69 
REMARK       I    between atoms: C_67  and  N_74 
REMARK   33  A    between atoms: CB_69  and  OG1_70 
REMARK   34  A    between atoms: N_74  and  CA_75 
REMARK   35  A    between atoms: CA_75  and  C_76 
REMARK       I    between atoms: C_76  and  N_80 
REMARK   36  A    between atoms: N_80  and  CA_81 
REMARK   37  A    between atoms: CA_81  and  C_82 
REMARK       I    between atoms: C_82  and  N_86 
REMARK   38  A    between atoms: N_86  and  CA_87 
REMARK   39  A    between atoms: CA_87  and  C_88 
REMARK       I    between atoms: C_88  and  N_91 
REMARK   40  A    between atoms: N_91  and  CA_92 
REMARK   41  A    between atoms: CA_92  and  C_93 
REMARK   42  A    between atoms: CA_92  and  CB_95 
REMARK       I    between atoms: C_93  and  N_100 
REMARK   43  A    between atoms: CB_95  and  CG_96 
REMARK   44  A    between atoms: N_100  and  CA_101 
REMARK   45  A    between atoms: CA_101  and  C_102 
REMARK   46  A    between atoms: CA_101  and  CB_104 
REMARK       I    between atoms: C_102  and  N_109 
REMARK   47  A    between atoms: CB_104  and  CG_105 
REMARK   48  A    between atoms: N_109  and  CA_110 
REMARK   49  A    between atoms: CA_110  and  C_111 
REMARK   50  A    between atoms: CA_110  and  CB_113 
REMARK       I    between atoms: C_111  and  N_117 
REMARK   51  A    between atoms: CB_113  and  OG_114 
REMARK   52  A    between atoms: N_117  and  CA_118 
REMARK   53  A    between atoms: CA_118  and  CB_121 
REMARK   54  A    between atoms: CA_118  and  C_119 
REMARK       I    between atoms: C_119  and  N_128 
REMARK   55  A    between atoms: CB_121  and  CG_122 
REMARK       I    between atoms: CG_122  and  ND2_124 
REMARK   56  A    between atoms: N_128  and  CA_129 
REMARK   57  A    between atoms: CA_129  and  CB_132 
REMARK   58  A    between atoms: CA_129  and  C_130 
REMARK   59  A    between atoms: CB_132  and  CG_133 
ROOT
ATOM      1  N   ILE     1      69.314  44.188  59.527  1.00  0.00    -0.058 N 
ATOM      2  H1  ILE     1      68.741  43.379  59.653  1.00 99.99     0.276 HD
ATOM      3  H2  ILE     1      70.246  43.964  59.810  1.00 99.99     0.276 HD
ATOM      4  H3  ILE     1      69.042  44.910  60.158  1.00 99.99     0.276 HD
ENDROOT
BRANCH   1   5
ATOM      5  CA  ILE     1      69.277  44.656  58.109  1.00  0.00     0.255 C 
BRANCH   5   6
ATOM      6  CB  ILE     1      70.684  44.665  57.470  1.00  0.00     0.037 C 
ATOM      7  CG2 ILE     1      71.737  45.082  58.506  1.00  0.00     0.002 C 
BRANCH   6   8
ATOM      8  CG1 ILE     1      71.002  43.345  56.742  1.00  0.00     0.002 C 
ATOM      9  CD  ILE     1      71.548  42.236  57.649  1.00  0.00     0.000 C 
ENDBRANCH   6   8
ENDBRANCH   5   6
BRANCH   5  10
ATOM     10  C   ILE     1      68.290  43.957  57.128  1.00  0.00     0.259 C 
ATOM     11  O   ILE     1      67.931  44.524  56.093  1.00  0.00    -0.271 OA
ATOM     12  N   LEU     2      67.680  42.847  57.558  1.00  0.00    -0.338 N 
ATOM     13  H   LEU     2      67.726  42.553  58.511  1.00 99.99     0.164 HD
BRANCH  12  14
ATOM     14  CA  LEU     2      66.908  41.951  56.661  1.00  0.00     0.159 C 
BRANCH  14  15
ATOM     15  C   LEU     2      65.379  42.162  56.688  1.00  0.00     0.251 C 
ATOM     16  N   GLY     3      64.656  41.343  55.907  1.00  0.00    -0.336 N 
ATOM     17  H   GLY     3      65.065  40.775  55.185  1.00 99.99     0.164 HD
ATOM     18  O   LEU     2      64.895  42.923  57.526  1.00  0.00    -0.271 OA
BRANCH  16  19
ATOM     19  CA  GLY     3      63.175  41.318  55.880  1.00  0.00     0.189 C 
BRANCH  19  20
ATOM     20  C   GLY     3      62.557  40.415  56.961  1.00  0.00     0.253 C 
ATOM     21  N   LYS     4      61.272  40.634  57.255  1.00  0.00    -0.337 N 
ATOM     22  H   LYS     4      60.757  41.383  56.844  1.00 99.99     0.164 HD
ATOM     23  O   GLY     3      63.180  39.433  57.351  1.00  0.00    -0.270 OA
BRANCH  21  24
ATOM     24  CA  LYS     4      60.516  39.830  58.241  1.00  0.00     0.159 C 
BRANCH  24  25
ATOM     25  C   LYS     4      59.246  39.191  57.644  1.00  0.00     0.251 C 
ATOM     26  O   LYS     4      59.167  37.967  57.575  1.00  0.00    -0.271 OA
ATOM     27  N   LEU     5      58.359  40.009  57.074  1.00  0.00    -0.338 N 
ATOM     28  H   LEU     5      58.479  41.005  57.062  1.00 99.99     0.164 HD
BRANCH  27  29
ATOM     29  CA  LEU     5      57.133  39.517  56.413  1.00  0.00     0.159 C 
BRANCH  29  30
ATOM     30  CB  LEU     5      55.897  40.076  57.132  1.00  0.00     0.032 C 
BRANCH  30  31
ATOM     31  CG  LEU     5      55.554  39.349  58.442  1.00  0.00     0.002 C 
ATOM     32  CD1 LEU     5      54.621  40.175  59.334  1.00  0.00     0.000 C 
ATOM     33  CD2 LEU     5      54.926  37.992  58.124  1.00  0.00     0.000 C 
ENDBRANCH  30  31
ENDBRANCH  29  30
BRANCH  29  34
ATOM     34  C   LEU     5      57.119  39.842  54.907  1.00  0.00     0.251 C 
ATOM     35  N   LEU     6      56.027  40.451  54.438  1.00  0.00    -0.338 N 
ATOM     36  H   LEU     6      55.216  40.596  55.011  1.00 99.99     0.164 HD
ATOM     37  O   LEU     5      58.152  39.706  54.253  1.00  0.00    -0.271 OA
BRANCH  35  38
ATOM     38  CA  LEU     6      55.906  40.941  53.050  1.00  0.00     0.159 C 
BRANCH  38  39
ATOM     39  C   LEU     6      55.281  39.905  52.100  1.00  0.00     0.251 C 
ATOM     40  N   SER     7      54.730  40.373  50.978  1.00  0.00    -0.336 N 
ATOM     41  H   SER     7      54.567  41.355  50.839  1.00 99.99     0.164 HD
ATOM     42  O   LEU     6      55.486  38.711  52.306  1.00  0.00    -0.271 OA
BRANCH  40  43
ATOM     43  CA  SER     7      54.171  39.510  49.912  1.00  0.00     0.189 C 
BRANCH  43  44
ATOM     44  C   SER     7      55.183  39.237  48.789  1.00  0.00     0.254 C 
ATOM     45  O   SER     7      55.893  38.234  48.848  1.00  0.00    -0.270 OA
ATOM     46  N   THR     8      55.341  40.191  47.867  1.00  0.00    -0.336 N 
ATOM     47  H   THR     8      54.737  40.995  47.820  1.00 99.99     0.164 HD
BRANCH  46  48
ATOM     48  CA  THR     8      56.318  40.089  46.758  1.00  0.00     0.186 C 
BRANCH  48  49
ATOM     49  C   THR     8      57.187  41.356  46.664  1.00  0.00     0.253 C 
ATOM     50  N   ALA     9      58.474  41.184  46.355  1.00  0.00    -0.337 N 
ATOM     51  H   ALA     9      58.877  40.270  46.242  1.00 99.99     0.164 HD
ATOM     52  O   THR     8      56.662  42.460  46.792  1.00  0.00    -0.270 OA
BRANCH  50  53
ATOM     53  CA  ALA     9      59.428  42.304  46.203  1.00  0.00     0.159 C 
ATOM     54  CB  ALA     9      58.936  43.268  45.120  1.00  0.00     0.034 C 
BRANCH  53  55
ATOM     55  C   ALA     9      59.678  43.046  47.527  1.00  0.00     0.251 C 
ATOM     56  O   ALA     9      59.203  44.169  47.689  1.00  0.00    -0.271 OA
ATOM     57  N   ALA    10      60.599  42.514  48.335  1.00  0.00    -0.338 N 
ATOM     58  H   ALA    10      61.035  41.631  48.133  1.00 99.99     0.164 HD
BRANCH  57  59
ATOM     59  CA  ALA    10      61.033  43.134  49.605  1.00  0.00     0.159 C 
ATOM     60  CB  ALA    10      61.349  42.048  50.637  1.00  0.00     0.034 C 
BRANCH  59  61
ATOM     61  C   ALA    10      62.247  44.058  49.407  1.00  0.00     0.251 C 
ATOM     62  N   GLY    11      63.401  43.454  49.074  1.00  0.00    -0.336 N 
ATOM     63  H   GLY    11      63.524  42.450  49.078  1.00 99.99     0.164 HD
ATOM     64  O   ALA    10      62.069  45.269  49.322  1.00  0.00    -0.271 OA
BRANCH  62  65
ATOM     65  CA  GLY    11      64.644  44.188  48.749  1.00  0.00     0.189 C 
BRANCH  65  66
ATOM     66  C   GLY    11      65.876  43.269  48.734  1.00  0.00     0.253 C 
ATOM     67  O   GLY    11      66.978  43.704  49.065  1.00  0.00    -0.270 OA
ATOM     68  N   LEU    12      65.704  42.077  48.166  1.00  0.00    -0.337 N 
ATOM     69  H   LEU    12      64.804  41.773  47.837  1.00 99.99     0.164 HD
BRANCH  68  70
ATOM     70  CA  LEU    12      66.789  41.086  48.013  1.00  0.00     0.159 C 
BRANCH  70  71
ATOM     71  C   LEU    12      66.735  40.360  46.652  1.00  0.00     0.251 C 
ATOM     72  O   LEU    12      67.780  39.966  46.133  1.00  0.00    -0.271 OA
ATOM     73  N   LEU    13      65.567  40.392  46.009  1.00  0.00    -0.338 N 
ATOM     74  H   LEU    13      64.754  40.823  46.415  1.00 99.99     0.164 HD
BRANCH  73  75
ATOM     75  CA  LEU    13      65.337  39.784  44.679  1.00  0.00     0.159 C 
BRANCH  75  76
ATOM     76  C   LEU    13      65.007  40.763  43.536  1.00  0.00     0.251 C 
ATOM     77  N   SER    14      63.917  40.495  42.817  1.00  0.00    -0.336 N 
ATOM     78  H   SER    14      63.496  39.585  42.840  1.00 99.99     0.164 HD
ATOM     79  O   LEU    13      65.793  41.669  43.270  1.00  0.00    -0.271 OA
BRANCH  77  80
ATOM     80  CA  SER    14      63.393  41.371  41.742  1.00  0.00     0.189 C 
BRANCH  80  81
ATOM     81  C   SER    14      62.001  41.968  42.014  1.00  0.00     0.254 C 
ATOM     82  O   SER    14      61.733  42.406  43.131  1.00  0.00    -0.270 OA
ATOM     83  N   ASN    15      61.224  42.173  40.948  1.00  0.00    -0.337 N 
ATOM     84  H   ASN    15      61.596  42.103  40.020  1.00 99.99     0.164 HD
BRANCH  83  85
ATOM     85  CA  ASN    15      59.836  42.688  41.027  1.00  0.00     0.169 C 
BRANCH  85  86
ATOM     86  CB  ASN    15      59.650  43.909  40.118  1.00  0.00     0.119 C 
BRANCH  86  87
ATOM     87  CG  ASN    15      59.844  43.665  38.617  1.00  0.00     0.230 C 
ATOM     88  OD1 ASN    15      60.919  43.435  38.084  1.00  0.00    -0.273 OA
ATOM     89  ND2 ASN    15      58.755  43.776  37.890  1.00  0.00    -0.369 N 
ATOM     90 1HD2 ASN    15      58.853  43.631  36.913  1.00 99.99     0.159 HD
ATOM     91 2HD2 ASN    15      57.884  43.972  38.328  1.00 99.99     0.159 HD
ENDBRANCH  86  87
ENDBRANCH  85  86
BRANCH  85  92
ATOM     92  C   ASN    15      58.744  41.655  40.680  1.00  0.00     0.251 C 
ATOM     93  O   ASN    15      57.578  42.010  40.510  1.00  0.00    -0.271 OA
ATOM     94  N   LEU    16      59.184  40.448  40.331  1.00  0.00    -0.336 N 
ATOM     95  H   LEU    16      60.164  40.270  40.244  1.00 99.99     0.164 HD
BRANCH  94  96
ATOM     96  CA  LEU    16      58.325  39.295  39.985  1.00  0.00     0.168 C 
BRANCH  96  97
ATOM     97  CB  LEU    16      58.360  39.190  38.454  1.00  0.00     0.033 C 
BRANCH  97  98
ATOM     98  CG  LEU    16      59.660  39.637  37.775  1.00  0.00     0.002 C 
ATOM     99  CD1 LEU    16      60.539  38.443  37.389  1.00  0.00     0.000 C 
ATOM    100  CD2 LEU    16      59.319  40.472  36.539  1.00  0.00     0.000 C 
ENDBRANCH  97  98
ENDBRANCH  96  97
BRANCH  96 101
ATOM    101  C   LEU    16      58.777  37.977  40.653  1.00  0.00     0.206 C 
ATOM    102  O   LEU    16      57.914  37.090  40.826  1.00 99.99    -0.646 OA
ATOM    103  OXT LEU    16      59.989  37.876  40.942  1.00 99.99    -0.646 OA
ENDBRANCH  96 101
ENDBRANCH  94  96
ENDBRANCH  85  92
ENDBRANCH  83  85
ENDBRANCH  80  81
BRANCH  80 104
ATOM    104  CB  SER    14      63.318  40.628  40.405  1.00  0.00     0.169 C 
BRANCH 104 105
ATOM    105  OG  SER    14      62.290  39.634  40.414  1.00  0.00    -0.380 OA
ATOM    106  HG  SER    14      62.671  38.784  40.773  1.00 99.99     0.211 HD
ENDBRANCH 104 105
ENDBRANCH  80 104
ENDBRANCH  77  80
ENDBRANCH  75  76
BRANCH  75 107
ATOM    107  CB  LEU    13      64.248  38.707  44.770  1.00  0.00     0.032 C 
BRANCH 107 108
ATOM    108  CG  LEU    13      63.509  38.694  46.115  1.00  0.00     0.002 C 
ATOM    109  CD2 LEU    13      63.331  37.268  46.648  1.00  0.00     0.000 C 
ATOM    110  CD1 LEU    13      62.139  39.352  45.945  1.00  0.00     0.000 C 
ENDBRANCH 107 108
ENDBRANCH  75 107
ENDBRANCH  73  75
ENDBRANCH  70  71
BRANCH  70 111
ATOM    111  CB  LEU    12      66.722  40.106  49.194  1.00  0.00     0.032 C 
BRANCH 111 112
ATOM    112  CG  LEU    12      65.467  39.223  49.218  1.00  0.00     0.002 C 
ATOM    113  CD1 LEU    12      65.815  37.734  49.318  1.00  0.00     0.000 C 
ATOM    114  CD2 LEU    12      64.575  39.639  50.389  1.00  0.00     0.000 C 
ENDBRANCH 111 112
ENDBRANCH  70 111
ENDBRANCH  68  70
ENDBRANCH  65  66
ENDBRANCH  62  65
ENDBRANCH  59  61
ENDBRANCH  57  59
ENDBRANCH  53  55
ENDBRANCH  50  53
ENDBRANCH  48  49
BRANCH  48 115
ATOM    115  CB  THR     8      55.639  39.816  45.401  1.00  0.00     0.140 C 
ATOM    116  CG2 THR     8      55.183  38.357  45.264  1.00  0.00     0.034 C 
BRANCH 115 117
ATOM    117  OG1 THR     8      54.492  40.658  45.254  1.00  0.00    -0.382 OA
ATOM    118  HG1 THR     8      53.683  40.171  45.589  1.00 99.99     0.210 HD
ENDBRANCH 115 117
ENDBRANCH  48 115
ENDBRANCH  46  48
ENDBRANCH  43  44
BRANCH  43 119
ATOM    119  CB  SER     7      52.916  40.128  49.282  1.00  0.00     0.169 C 
BRANCH 119 120
ATOM    120  OG  SER     7      53.077  41.533  49.074  1.00  0.00    -0.380 OA
ATOM    121  HG  SER     7      54.014  41.790  49.313  1.00 99.99     0.211 HD
ENDBRANCH 119 120
ENDBRANCH  43 119
ENDBRANCH  40  43
ENDBRANCH  38  39
BRANCH  38 122
ATOM    122  CB  LEU     6      57.263  41.408  52.508  1.00  0.00     0.032 C 
BRANCH 122 123
ATOM    123  CG  LEU     6      57.201  42.749  51.762  1.00  0.00     0.002 C 
ATOM    124  CD2 LEU     6      55.891  43.495  52.046  1.00  0.00     0.000 C 
ATOM    125  CD1 LEU     6      57.331  42.502  50.259  1.00  0.00     0.000 C 
ENDBRANCH 122 123
ENDBRANCH  38 122
ENDBRANCH  35  38
ENDBRANCH  29  34
ENDBRANCH  27  29
ENDBRANCH  24  25
BRANCH  24 126
ATOM    126  CB  LYS     4      60.172  40.673  59.480  1.00  0.00     0.032 C 
BRANCH 126 127
ATOM    127  CG  LYS     4      60.730  40.043  60.762  1.00  0.00     0.004 C 
BRANCH 127 128
ATOM    128  CD  LYS     4      62.235  39.776  60.707  1.00  0.00     0.032 C 
BRANCH 128 129
ATOM    129  CE  LYS     4      62.991  41.107  60.640  1.00  0.00     0.206 C 
BRANCH 129 130
ATOM    130  NZ  LYS     4      64.263  40.996  59.909  1.00  0.00    -0.064 N 
ATOM    131  HZ1 LYS     4      64.080  40.719  58.965  1.00 99.99     0.275 HD
ATOM    132  HZ2 LYS     4      64.729  41.881  59.904  1.00 99.99     0.275 HD
ATOM    133  HZ3 LYS     4      64.848  40.312  60.344  1.00 99.99     0.275 HD
ENDBRANCH 129 130
ENDBRANCH 128 129
ENDBRANCH 127 128
ENDBRANCH 126 127
ENDBRANCH  24 126
ENDBRANCH  21  24
ENDBRANCH  19  20
ENDBRANCH  16  19
ENDBRANCH  14  15
BRANCH  14 134
ATOM    134  CB  LEU     2      67.293  40.487  56.925  1.00  0.00     0.032 C 
BRANCH 134 135
ATOM    135  CG  LEU     2      68.045  39.819  55.763  1.00  0.00     0.002 C 
ATOM    136  CD2 LEU     2      68.447  40.874  54.732  1.00  0.00     0.000 C 
ATOM    137  CD1 LEU     2      67.213  38.718  55.095  1.00  0.00     0.000 C 
ENDBRANCH 134 135
ENDBRANCH  14 134
ENDBRANCH  12  14
ENDBRANCH   5  10
ENDBRANCH   1   5
TORSDOF 59
ENDMDL
MODEL 9
REMARK VINA RESULT:      -3.9      3.244     13.164
REMARK WARNING: 32 MAX_TORS EXCEEDED!!!
REMARK  59 active torsions:
REMARK  status: ('A' for Active; 'I' for Inactive)
REMARK    1  A    between atoms: N_1  and  CA_2 
REMARK    2  A    between atoms: CA_2  and  CB_5 
REMARK    3  A    between atoms: CA_2  and  C_3 
REMARK       I    between atoms: C_3  and  N_12 
REMARK    4  A    between atoms: CB_5  and  CG1_6 
REMARK    5  A    between atoms: N_12  and  CA_13 
REMARK    6  A    between atoms: CA_13  and  C_14 
REMARK    7  A    between atoms: CA_13  and  CB_16 
REMARK       I    between atoms: C_14  and  N_21 
REMARK    8  A    between atoms: CB_16  and  CG_17 
REMARK    9  A    between atoms: N_21  and  CA_22 
REMARK   10  A    between atoms: CA_22  and  C_23 
REMARK       I    between atoms: C_23  and  N_26 
REMARK   11  A    between atoms: N_26  and  CA_27 
REMARK   12  A    between atoms: CA_27  and  C_28 
REMARK   13  A    between atoms: CA_27  and  CB_30 
REMARK       I    between atoms: C_28  and  N_39 
REMARK   14  A    between atoms: CB_30  and  CG_31 
REMARK   15  A    between atoms: CG_31  and  CD_32 
REMARK   16  A    between atoms: CD_32  and  CE_33 
REMARK   17  A    between atoms: CE_33  and  NZ_34 
REMARK   18  A    between atoms: N_39  and  CA_40 
REMARK   19  A    between atoms: CA_40  and  CB_43 
REMARK   20  A    between atoms: CA_40  and  C_41 
REMARK       I    between atoms: C_41  and  N_48 
REMARK   21  A    between atoms: CB_43  and  CG_44 
REMARK   22  A    between atoms: N_48  and  CA_49 
REMARK   23  A    between atoms: CA_49  and  C_50 
REMARK   24  A    between atoms: CA_49  and  CB_52 
REMARK       I    between atoms: C_50  and  N_57 
REMARK   25  A    between atoms: CB_52  and  CG_53 
REMARK   26  A    between atoms: N_57  and  CA_58 
REMARK   27  A    between atoms: CA_58  and  C_59 
REMARK   28  A    between atoms: CA_58  and  CB_61 
REMARK       I    between atoms: C_59  and  N_65 
REMARK   29  A    between atoms: CB_61  and  OG_62 
REMARK   30  A    between atoms: N_65  and  CA_66 
REMARK   31  A    between atoms: CA_66  and  C_67 
REMARK   32  A    between atoms: CA_66  and  CB_69 
REMARK       I    between atoms: C_67  and  N_74 
REMARK   33  A    between atoms: CB_69  and  OG1_70 
REMARK   34  A    between atoms: N_74  and  CA_75 
REMARK   35  A    between atoms: CA_75  and  C_76 
REMARK       I    between atoms: C_76  and  N_80 
REMARK   36  A    between atoms: N_80  and  CA_81 
REMARK   37  A    between atoms: CA_81  and  C_82 
REMARK       I    between atoms: C_82  and  N_86 
REMARK   38  A    between atoms: N_86  and  CA_87 
REMARK   39  A    between atoms: CA_87  and  C_88 
REMARK       I    between atoms: C_88  and  N_91 
REMARK   40  A    between atoms: N_91  and  CA_92 
REMARK   41  A    between atoms: CA_92  and  C_93 
REMARK   42  A    between atoms: CA_92  and  CB_95 
REMARK       I    between atoms: C_93  and  N_100 
REMARK   43  A    between atoms: CB_95  and  CG_96 
REMARK   44  A    between atoms: N_100  and  CA_101 
REMARK   45  A    between atoms: CA_101  and  C_102 
REMARK   46  A    between atoms: CA_101  and  CB_104 
REMARK       I    between atoms: C_102  and  N_109 
REMARK   47  A    between atoms: CB_104  and  CG_105 
REMARK   48  A    between atoms: N_109  and  CA_110 
REMARK   49  A    between atoms: CA_110  and  C_111 
REMARK   50  A    between atoms: CA_110  and  CB_113 
REMARK       I    between atoms: C_111  and  N_117 
REMARK   51  A    between atoms: CB_113  and  OG_114 
REMARK   52  A    between atoms: N_117  and  CA_118 
REMARK   53  A    between atoms: CA_118  and  CB_121 
REMARK   54  A    between atoms: CA_118  and  C_119 
REMARK       I    between atoms: C_119  and  N_128 
REMARK   55  A    between atoms: CB_121  and  CG_122 
REMARK       I    between atoms: CG_122  and  ND2_124 
REMARK   56  A    between atoms: N_128  and  CA_129 
REMARK   57  A    between atoms: CA_129  and  CB_132 
REMARK   58  A    between atoms: CA_129  and  C_130 
REMARK   59  A    between atoms: CB_132  and  CG_133 
ROOT
ATOM      1  N   ILE     1      60.004  43.199  35.432  1.00  0.00    -0.058 N 
ATOM      2  H1  ILE     1      60.608  43.180  34.637  1.00 99.99     0.276 HD
ATOM      3  H2  ILE     1      59.166  42.703  35.205  1.00 99.99     0.276 HD
ATOM      4  H3  ILE     1      59.688  44.128  35.608  1.00 99.99     0.276 HD
ENDROOT
BRANCH   1   5
ATOM      5  CA  ILE     1      60.674  42.610  36.630  1.00  0.00     0.255 C 
BRANCH   5   6
ATOM      6  CB  ILE     1      62.008  43.322  36.949  1.00  0.00     0.037 C 
ATOM      7  CG2 ILE     1      63.194  42.412  36.601  1.00  0.00     0.002 C 
BRANCH   6   8
ATOM      8  CG1 ILE     1      62.084  44.727  36.321  1.00  0.00     0.002 C 
ATOM      9  CD  ILE     1      63.394  45.475  36.596  1.00  0.00     0.000 C 
ENDBRANCH   6   8
ENDBRANCH   5   6
BRANCH   5  10
ATOM     10  C   ILE     1      59.851  42.485  37.946  1.00  0.00     0.259 C 
ATOM     11  O   ILE     1      58.815  43.138  38.099  1.00  0.00    -0.271 OA
ATOM     12  N   LEU     2      60.423  41.840  38.969  1.00  0.00    -0.338 N 
ATOM     13  H   LEU     2      61.386  41.580  38.959  1.00 99.99     0.164 HD
BRANCH  12  14
ATOM     14  CA  LEU     2      59.678  41.440  40.188  1.00  0.00     0.159 C 
BRANCH  14  15
ATOM     15  C   LEU     2      59.905  42.344  41.419  1.00  0.00     0.251 C 
ATOM     16  N   GLY     3      58.821  42.604  42.169  1.00  0.00    -0.336 N 
ATOM     17  H   GLY     3      57.884  42.419  41.857  1.00 99.99     0.164 HD
ATOM     18  O   LEU     2      61.056  42.629  41.747  1.00  0.00    -0.271 OA
BRANCH  16  19
ATOM     19  CA  GLY     3      58.859  43.358  43.444  1.00  0.00     0.189 C 
BRANCH  19  20
ATOM     20  C   GLY     3      59.851  42.781  44.469  1.00  0.00     0.253 C 
ATOM     21  N   LYS     4      59.877  41.451  44.587  1.00  0.00    -0.337 N 
ATOM     22  H   LYS     4      59.243  40.865  44.088  1.00 99.99     0.164 HD
ATOM     23  O   GLY     3      60.694  43.520  44.969  1.00  0.00    -0.270 OA
BRANCH  21  24
ATOM     24  CA  LYS     4      60.800  40.734  45.496  1.00  0.00     0.159 C 
BRANCH  24  25
ATOM     25  C   LYS     4      62.150  40.396  44.832  1.00  0.00     0.251 C 
ATOM     26  O   LYS     4      63.016  41.263  44.762  1.00  0.00    -0.271 OA
ATOM     27  N   LEU     5      62.249  39.217  44.214  1.00  0.00    -0.338 N 
ATOM     28  H   LEU     5      61.500  38.551  44.207  1.00 99.99     0.164 HD
BRANCH  27  29
ATOM     29  CA  LEU     5      63.466  38.800  43.489  1.00  0.00     0.159 C 
BRANCH  29  30
ATOM     30  CB  LEU     5      63.558  39.553  42.154  1.00  0.00     0.032 C 
BRANCH  30  31
ATOM     31  CG  LEU     5      64.230  38.752  41.028  1.00  0.00     0.002 C 
ATOM     32  CD1 LEU     5      63.270  38.468  39.868  1.00  0.00     0.000 C 
ATOM     33  CD2 LEU     5      65.462  39.507  40.529  1.00  0.00     0.000 C 
ENDBRANCH  30  31
ENDBRANCH  29  30
BRANCH  29  34
ATOM     34  C   LEU     5      64.737  38.980  44.341  1.00  0.00     0.251 C 
ATOM     35  N   LEU     6      65.465  40.074  44.103  1.00  0.00    -0.338 N 
ATOM     36  H   LEU     6      65.255  40.692  43.339  1.00 99.99     0.164 HD
ATOM     37  O   LEU     5      64.926  38.238  45.304  1.00  0.00    -0.271 OA
BRANCH  35  38
ATOM     38  CA  LEU     6      66.639  40.458  44.913  1.00  0.00     0.159 C 
BRANCH  38  39
ATOM     39  C   LEU     6      66.489  41.843  45.566  1.00  0.00     0.251 C 
ATOM     40  N   SER     7      66.733  41.919  46.876  1.00  0.00    -0.336 N 
ATOM     41  H   SER     7      66.830  41.096  47.445  1.00 99.99     0.164 HD
ATOM     42  O   LEU     6      66.356  42.828  44.844  1.00  0.00    -0.271 OA
BRANCH  40  43
ATOM     43  CA  SER     7      66.730  43.186  47.643  1.00  0.00     0.189 C 
BRANCH  43  44
ATOM     44  C   SER     7      65.328  43.562  48.146  1.00  0.00     0.254 C 
ATOM     45  O   SER     7      64.373  43.501  47.374  1.00  0.00    -0.270 OA
ATOM     46  N   THR     8      65.241  44.079  49.376  1.00  0.00    -0.336 N 
ATOM     47  H   THR     8      66.028  44.101  50.003  1.00 99.99     0.164 HD
BRANCH  46  48
ATOM     48  CA  THR     8      63.964  44.535  49.972  1.00  0.00     0.186 C 
BRANCH  48  49
ATOM     49  C   THR     8      62.913  43.411  49.961  1.00  0.00     0.253 C 
ATOM     50  N   ALA     9      61.834  43.600  49.198  1.00  0.00    -0.337 N 
ATOM     51  H   ALA     9      61.681  44.457  48.694  1.00 99.99     0.164 HD
ATOM     52  O   THR     8      63.135  42.369  50.575  1.00  0.00    -0.270 OA
BRANCH  50  53
ATOM     53  CA  ALA     9      60.751  42.602  49.063  1.00  0.00     0.159 C 
ATOM     54  CB  ALA     9      60.235  42.198  50.447  1.00  0.00     0.034 C 
BRANCH  53  55
ATOM     55  C   ALA     9      59.601  43.101  48.171  1.00  0.00     0.251 C 
ATOM     56  O   ALA     9      59.543  44.293  47.872  1.00  0.00    -0.271 OA
ATOM     57  N   ALA    10      58.597  42.243  47.969  1.00  0.00    -0.338 N 
ATOM     58  H   ALA    10      58.637  41.294  48.302  1.00 99.99     0.164 HD
BRANCH  57  59
ATOM     59  CA  ALA    10      57.371  42.577  47.214  1.00  0.00     0.159 C 
ATOM     60  CB  ALA    10      56.905  41.361  46.409  1.00  0.00     0.034 C 
BRANCH  59  61
ATOM     61  C   ALA    10      56.247  43.074  48.138  1.00  0.00     0.251 C 
ATOM     62  N   GLY    11      55.713  42.159  48.965  1.00  0.00    -0.336 N 
ATOM     63  H   GLY    11      55.923  41.171  48.911  1.00 99.99     0.164 HD
ATOM     64  O   ALA    10      56.060  44.282  48.256  1.00  0.00    -0.271 OA
BRANCH  62  65
ATOM     65  CA  GLY    11      54.692  42.478  49.989  1.00  0.00     0.189 C 
BRANCH  65  66
ATOM     66  C   GLY    11      53.661  41.350  50.154  1.00  0.00     0.253 C 
ATOM     67  O   GLY    11      52.546  41.451  49.647  1.00  0.00    -0.270 OA
ATOM     68  N   LEU    12      53.983  40.391  51.021  1.00  0.00    -0.337 N 
ATOM     69  H   LEU    12      54.878  40.372  51.479  1.00 99.99     0.164 HD
BRANCH  68  70
ATOM     70  CA  LEU    12      53.093  39.260  51.348  1.00  0.00     0.159 C 
BRANCH  70  71
ATOM     71  C   LEU    12      53.165  38.866  52.839  1.00  0.00     0.251 C 
ATOM     72  O   LEU    12      52.125  38.741  53.485  1.00  0.00    -0.271 OA
ATOM     73  N   LEU    13      54.375  38.892  53.401  1.00  0.00    -0.338 N 
ATOM     74  H   LEU    13      55.199  39.109  52.867  1.00 99.99     0.164 HD
BRANCH  73  75
ATOM     75  CA  LEU    13      54.633  38.582  54.825  1.00  0.00     0.159 C 
BRANCH  75  76
ATOM     76  C   LEU    13      55.738  39.412  55.509  1.00  0.00     0.251 C 
ATOM     77  N   SER    14      56.957  39.337  54.974  1.00  0.00    -0.336 N 
ATOM     78  H   SER    14      57.199  38.592  54.347  1.00 99.99     0.164 HD
ATOM     79  O   LEU    13      55.485  40.013  56.550  1.00  0.00    -0.271 OA
BRANCH  77  80
ATOM     80  CA  SER    14      58.118  40.133  55.437  1.00  0.00     0.189 C 
BRANCH  80  81
ATOM     81  C   SER    14      59.065  40.607  54.320  1.00  0.00     0.254 C 
ATOM     82  O   SER    14      58.606  41.182  53.336  1.00  0.00    -0.270 OA
ATOM     83  N   ASN    15      60.371  40.554  54.587  1.00  0.00    -0.337 N 
ATOM     84  H   ASN    15      60.700  40.380  55.518  1.00 99.99     0.164 HD
BRANCH  83  85
ATOM     85  CA  ASN    15      61.427  40.916  53.612  1.00  0.00     0.169 C 
BRANCH  85  86
ATOM     86  CB  ASN    15      62.542  41.726  54.284  1.00  0.00     0.119 C 
BRANCH  86  87
ATOM     87  CG  ASN    15      62.917  41.298  55.708  1.00  0.00     0.230 C 
ATOM     88  OD1 ASN    15      62.468  40.315  56.279  1.00  0.00    -0.273 OA
ATOM     89  ND2 ASN    15      63.739  42.111  56.334  1.00  0.00    -0.369 N 
ATOM     90 1HD2 ASN    15      63.992  41.862  57.262  1.00 99.99     0.159 HD
ATOM     91 2HD2 ASN    15      64.094  42.914  55.868  1.00 99.99     0.159 HD
ENDBRANCH  86  87
ENDBRANCH  85  86
BRANCH  85  92
ATOM     92  C   ASN    15      62.070  39.719  52.881  1.00  0.00     0.251 C 
ATOM     93  O   ASN    15      61.406  38.717  52.618  1.00  0.00    -0.271 OA
ATOM     94  N   LEU    16      63.266  39.948  52.343  1.00  0.00    -0.336 N 
ATOM     95  H   LEU    16      63.668  40.863  52.370  1.00 99.99     0.164 HD
BRANCH  94  96
ATOM     96  CA  LEU    16      64.081  38.948  51.621  1.00  0.00     0.168 C 
BRANCH  96  97
ATOM     97  CB  LEU    16      64.797  39.719  50.502  1.00  0.00     0.033 C 
BRANCH  97  98
ATOM     98  CG  LEU    16      64.715  39.105  49.100  1.00  0.00     0.002 C 
ATOM     99  CD1 LEU    16      63.961  40.014  48.124  1.00  0.00     0.000 C 
ATOM    100  CD2 LEU    16      66.131  38.831  48.590  1.00  0.00     0.000 C 
ENDBRANCH  97  98
ENDBRANCH  96  97
BRANCH  96 101
ATOM    101  C   LEU    16      65.087  38.210  52.532  1.00  0.00     0.206 C 
ATOM    102  O   LEU    16      65.020  36.963  52.579  1.00 99.99    -0.646 OA
ATOM    103  OXT LEU    16      65.927  38.914  53.134  1.00 99.99    -0.646 OA
ENDBRANCH  96 101
ENDBRANCH  94  96
ENDBRANCH  85  92
ENDBRANCH  83  85
ENDBRANCH  80  81
BRANCH  80 104
ATOM    104  CB  SER    14      58.961  39.352  56.451  1.00  0.00     0.169 C 
BRANCH 104 105
ATOM    105  OG  SER    14      59.623  40.228  57.367  1.00  0.00    -0.380 OA
ATOM    106  HG  SER    14      60.039  40.974  56.851  1.00 99.99     0.211 HD
ENDBRANCH 104 105
ENDBRANCH  80 104
ENDBRANCH  77  80
ENDBRANCH  75  76
BRANCH  75 107
ATOM    107  CB  LEU    13      54.927  37.086  54.996  1.00  0.00     0.032 C 
BRANCH 107 108
ATOM    108  CG  LEU    13      55.358  36.393  53.697  1.00  0.00     0.002 C 
ATOM    109  CD2 LEU    13      54.387  35.272  53.307  1.00  0.00     0.000 C 
ATOM    110  CD1 LEU    13      56.762  35.815  53.874  1.00  0.00     0.000 C 
ENDBRANCH 107 108
ENDBRANCH  75 107
ENDBRANCH  73  75
ENDBRANCH  70  71
BRANCH  70 111
ATOM    111  CB  LEU    12      53.441  38.084  50.423  1.00  0.00     0.032 C 
BRANCH 111 112
ATOM    112  CG  LEU    12      52.371  37.761  49.371  1.00  0.00     0.002 C 
ATOM    113  CD1 LEU    12      52.280  36.258  49.089  1.00  0.00     0.000 C 
ATOM    114  CD2 LEU    12      51.018  38.296  49.842  1.00  0.00     0.000 C 
ENDBRANCH 111 112
ENDBRANCH  70 111
ENDBRANCH  68  70
ENDBRANCH  65  66
ENDBRANCH  62  65
ENDBRANCH  59  61
ENDBRANCH  57  59
ENDBRANCH  53  55
ENDBRANCH  50  53
ENDBRANCH  48  49
BRANCH  48 115
ATOM    115  CB  THR     8      63.402  45.787  49.270  1.00  0.00     0.140 C 
ATOM    116  CG2 THR     8      62.714  46.743  50.253  1.00  0.00     0.034 C 
BRANCH 115 117
ATOM    117  OG1 THR     8      64.462  46.497  48.624  1.00  0.00    -0.382 OA
ATOM    118  HG1 THR     8      64.085  47.308  48.171  1.00 99.99     0.210 HD
ENDBRANCH 115 117
ENDBRANCH  48 115
ENDBRANCH  46  48
ENDBRANCH  43  44
BRANCH  43 119
ATOM    119  CB  SER     7      67.266  44.356  46.809  1.00  0.00     0.169 C 
BRANCH 119 120
ATOM    120  OG  SER     7      66.222  45.268  46.461  1.00  0.00    -0.380 OA
ATOM    121  HG  SER     7      65.360  44.932  46.841  1.00 99.99     0.211 HD
ENDBRANCH 119 120
ENDBRANCH  43 119
ENDBRANCH  40  43
ENDBRANCH  38  39
BRANCH  38 122
ATOM    122  CB  LEU     6      67.927  40.398  44.083  1.00  0.00     0.032 C 
BRANCH 122 123
ATOM    123  CG  LEU     6      69.082  39.672  44.789  1.00  0.00     0.002 C 
ATOM    124  CD2 LEU     6      68.571  38.718  45.876  1.00  0.00     0.000 C 
ATOM    125  CD1 LEU     6      70.022  40.702  45.416  1.00  0.00     0.000 C 
ENDBRANCH 122 123
ENDBRANCH  38 122
ENDBRANCH  35  38
ENDBRANCH  29  34
ENDBRANCH  27  29
ENDBRANCH  24  25
BRANCH  24 126
ATOM    126  CB  LYS     4      60.134  39.467  46.057  1.00  0.00     0.032 C 
BRANCH 126 127
ATOM    127  CG  LYS     4      60.515  39.234  47.525  1.00  0.00     0.004 C 
BRANCH 127 128
ATOM    128  CD  LYS     4      60.482  37.762  47.938  1.00  0.00     0.032 C 
BRANCH 128 129
ATOM    129  CE  LYS     4      59.526  36.991  47.021  1.00  0.00     0.206 C 
BRANCH 129 130
ATOM    130  NZ  LYS     4      59.088  35.715  47.609  1.00  0.00    -0.064 N 
ATOM    131  HZ1 LYS     4      59.710  34.987  47.321  1.00 99.99     0.275 HD
ATOM    132  HZ2 LYS     4      59.102  35.781  48.607  1.00 99.99     0.275 HD
ATOM    133  HZ3 LYS     4      58.162  35.498  47.301  1.00 99.99     0.275 HD
ENDBRANCH 129 130
ENDBRANCH 128 129
ENDBRANCH 127 128
ENDBRANCH 126 127
ENDBRANCH  24 126
ENDBRANCH  21  24
ENDBRANCH  19  20
ENDBRANCH  16  19
ENDBRANCH  14  15
BRANCH  14 134
ATOM    134  CB  LEU     2      59.945  39.959  40.503  1.00  0.00     0.032 C 
BRANCH 134 135
ATOM    135  CG  LEU     2      58.678  39.147  40.815  1.00  0.00     0.002 C 
ATOM    136  CD2 LEU     2      57.462  39.821  40.179  1.00  0.00     0.000 C 
ATOM    137  CD1 LEU     2      58.460  38.976  42.323  1.00  0.00     0.000 C 
ENDBRANCH 134 135
ENDBRANCH  14 134
ENDBRANCH  12  14
ENDBRANCH   5  10
ENDBRANCH   1   5
TORSDOF 59
ENDMDL
