MODEL 1
REMARK VINA RESULT:      -5.6      0.000      0.000
REMARK WARNING: 32 MAX_TORS EXCEEDED!!!
REMARK  39 active torsions:
REMARK  status: ('A' for Active; 'I' for Inactive)
REMARK    1  A    between atoms: N_1  and  CA_2 
REMARK    2  A    between atoms: CA_2  and  CB_5 
REMARK    3  A    between atoms: CA_2  and  C_3 
REMARK       I    between atoms: C_3  and  N_20 
REMARK    4  A    between atoms: CB_5  and  CG_6 
REMARK    5  A    between atoms: CG_6  and  CD_7 
REMARK    6  A    between atoms: CD_7  and  NE_8 
REMARK       I    between atoms: NE_8  and  CZ_9 
REMARK       I    between atoms: CZ_9  and  NH2_11 
REMARK       I    between atoms: CZ_9  and  NH1_10 
REMARK    7  A    between atoms: N_20  and  CA_21 
REMARK    8  A    between atoms: CA_21  and  C_22 
REMARK    9  A    between atoms: CA_21  and  CB_24 
REMARK       I    between atoms: C_22  and  N_37 
REMARK   10  A    between atoms: CB_24  and  CG_25 
REMARK   11  A    between atoms: CG_25  and  CD_26 
REMARK   12  A    between atoms: CD_26  and  NE_27 
REMARK       I    between atoms: NE_27  and  CZ_28 
REMARK       I    between atoms: CZ_28  and  NH2_30 
REMARK       I    between atoms: CZ_28  and  NH1_29 
REMARK   13  A    between atoms: N_37  and  CA_38 
REMARK   14  A    between atoms: CA_38  and  C_39 
REMARK   15  A    between atoms: CA_38  and  CB_41 
REMARK       I    between atoms: C_39  and  N_53 
REMARK   16  A    between atoms: CB_41  and  CG_42 
REMARK   17  A    between atoms: N_53  and  CA_54 
REMARK   18  A    between atoms: CA_54  and  CB_57 
REMARK   19  A    between atoms: CA_54  and  C_55 
REMARK       I    between atoms: C_55  and  N_61 
REMARK   20  A    between atoms: N_61  and  CA_62 
REMARK   21  A    between atoms: CA_62  and  CB_65 
REMARK   22  A    between atoms: CA_62  and  C_63 
REMARK       I    between atoms: C_63  and  N_70 
REMARK   23  A    between atoms: CB_65  and  CG1_66 
REMARK   24  A    between atoms: N_70  and  CA_71 
REMARK   25  A    between atoms: CA_71  and  CB_74 
REMARK   26  A    between atoms: CA_71  and  C_72 
REMARK       I    between atoms: C_72  and  N_86 
REMARK   27  A    between atoms: CB_74  and  CG_75 
REMARK   28  A    between atoms: N_86  and  CA_87 
REMARK   29  A    between atoms: CA_87  and  CB_90 
REMARK   30  A    between atoms: CA_87  and  C_88 
REMARK       I    between atoms: C_88  and  N_103 
REMARK   31  A    between atoms: CB_90  and  CG_91 
REMARK   32  A    between atoms: CG_91  and  CD_92 
REMARK   33  A    between atoms: CD_92  and  NE_93 
REMARK       I    between atoms: NE_93  and  CZ_94 
REMARK       I    between atoms: CZ_94  and  NH2_96 
REMARK       I    between atoms: CZ_94  and  NH1_95 
REMARK   34  A    between atoms: N_103  and  CA_104 
REMARK   35  A    between atoms: CA_104  and  CB_107 
REMARK   36  A    between atoms: CA_104  and  C_105 
REMARK   37  A    between atoms: CB_107  and  CG_108 
REMARK   38  A    between atoms: CG_108  and  CD_109 
REMARK   39  A    between atoms: CD_109  and  NE_110 
REMARK       I    between atoms: NE_110  and  CZ_111 
REMARK       I    between atoms: CZ_111  and  NH1_112 
ROOT
ATOM      1  N   ARG     1      57.649  41.731  41.429  1.00  0.00    -0.058 N 
ATOM      2  H1  ARG     1      57.930  41.806  42.390  1.00 99.99     0.276 HD
ATOM      3  H2  ARG     1      56.978  42.435  41.249  1.00 99.99     0.276 HD
ATOM      4  H3  ARG     1      57.170  40.878  41.300  1.00 99.99     0.276 HD
ENDROOT
BRANCH   1   5
ATOM      5  CA  ARG     1      58.873  41.865  40.598  1.00  0.00     0.255 C 
BRANCH   5   6
ATOM      6  CB  ARG     1      58.937  43.310  40.058  1.00  0.00     0.042 C 
BRANCH   6   7
ATOM      7  CG  ARG     1      59.884  43.586  38.875  1.00  0.00     0.027 C 
BRANCH   7   8
ATOM      8  CD  ARG     1      59.497  42.861  37.583  1.00  0.00     0.116 C 
BRANCH   8   9
ATOM      9  NE  ARG     1      58.369  43.556  36.925  1.00  0.00    -0.212 N 
ATOM     10  CZ  ARG     1      58.437  44.387  35.877  1.00  0.00     0.666 C 
ATOM     11  NH2 ARG     1      57.359  45.050  35.478  1.00  0.00    -0.235 N 
ATOM     12  NH1 ARG     1      59.577  44.641  35.246  1.00  0.00    -0.235 N 
ATOM     13 1HH2 ARG     1      57.425  45.669  34.698  1.00 99.99     0.174 HD
ATOM     14 2HH2 ARG     1      56.486  44.928  35.944  1.00 99.99     0.174 HD
ATOM     15 1HH1 ARG     1      59.594  45.269  34.470  1.00 99.99     0.174 HD
ATOM     16 2HH1 ARG     1      60.413  44.197  35.558  1.00 99.99     0.174 HD
ATOM     17  HE  ARG     1      57.469  43.362  37.309  1.00 99.99     0.178 HD
ENDBRANCH   8   9
ENDBRANCH   7   8
ENDBRANCH   6   7
ENDBRANCH   5   6
BRANCH   5  18
ATOM     18  C   ARG     1      60.110  41.576  41.485  1.00  0.00     0.259 C 
ATOM     19  O   ARG     1      60.918  40.717  41.134  1.00  0.00    -0.271 OA
ATOM     20  N   ARG     2      60.321  42.356  42.547  1.00  0.00    -0.338 N 
ATOM     21  H   ARG     2      59.796  43.184  42.737  1.00 99.99     0.164 HD
BRANCH  20  22
ATOM     22  CA  ARG     2      61.388  42.067  43.530  1.00  0.00     0.159 C 
BRANCH  22  23
ATOM     23  C   ARG     2      60.929  42.499  44.931  1.00  0.00     0.251 C 
ATOM     24  N   TRP     3      59.642  42.282  45.190  1.00  0.00    -0.337 N 
ATOM     25  H   TRP     3      59.019  41.944  44.488  1.00 99.99     0.164 HD
ATOM     26  O   ARG     2      61.657  43.198  45.634  1.00  0.00    -0.271 OA
BRANCH  24  27
ATOM     27  CA  TRP     3      59.023  42.532  46.510  1.00  0.00     0.164 C 
BRANCH  27  28
ATOM     28  C   TRP     3      59.448  41.452  47.524  1.00  0.00     0.251 C 
ATOM     29  N   VAL     4      59.374  40.191  47.098  1.00  0.00    -0.338 N 
ATOM     30  H   VAL     4      59.219  39.989  46.132  1.00 99.99     0.164 HD
ATOM     31  O   TRP     3      60.049  41.764  48.551  1.00  0.00    -0.271 OA
BRANCH  29  32
ATOM     32  CA  VAL     4      59.484  38.989  47.968  1.00  0.00     0.159 C 
BRANCH  32  33
ATOM     33  CB  VAL     4      59.246  37.699  47.147  1.00  0.00     0.029 C 
ATOM     34  CG2 VAL     4      59.931  37.769  45.776  1.00  0.00     0.002 C 
ATOM     35  CG1 VAL     4      57.756  37.419  46.909  1.00  0.00     0.002 C 
ENDBRANCH  32  33
BRANCH  32  36
ATOM     36  C   VAL     4      60.757  38.936  48.848  1.00  0.00     0.251 C 
ATOM     37  N   ILE     5      61.855  39.544  48.396  1.00  0.00    -0.338 N 
ATOM     38  H   ILE     5      61.887  40.014  47.517  1.00 99.99     0.164 HD
ATOM     39  O   VAL     4      60.700  38.423  49.965  1.00  0.00    -0.271 OA
BRANCH  37  40
ATOM     40  CA  ILE     5      63.152  39.526  49.120  1.00  0.00     0.159 C 
BRANCH  40  41
ATOM     41  CB  ILE     5      64.256  38.874  48.266  1.00  0.00     0.029 C 
ATOM     42  CG2 ILE     5      64.790  37.630  48.996  1.00  0.00     0.002 C 
BRANCH  41  43
ATOM     43  CG1 ILE     5      63.785  38.594  46.826  1.00  0.00     0.002 C 
ATOM     44  CD  ILE     5      63.598  37.109  46.494  1.00  0.00     0.000 C 
ENDBRANCH  41  43
ENDBRANCH  40  41
BRANCH  40  45
ATOM     45  C   ILE     5      63.612  40.872  49.728  1.00  0.00     0.251 C 
ATOM     46  O   ILE     5      64.800  41.105  49.941  1.00  0.00    -0.271 OA
ATOM     47  N   TRP     6      62.640  41.756  49.931  1.00  0.00    -0.337 N 
ATOM     48  H   TRP     6      61.756  41.670  49.475  1.00 99.99     0.164 HD
BRANCH  47  49
ATOM     49  CA  TRP     6      62.764  43.001  50.714  1.00  0.00     0.164 C 
BRANCH  49  50
ATOM     50  CB  TRP     6      62.701  44.210  49.771  1.00  0.00     0.059 C 
BRANCH  50  51
ATOM     51  CG  TRP     6      64.081  44.740  49.381  1.00  0.00    -0.016 A 
ATOM     52  CD2 TRP     6      64.810  44.398  48.253  1.00  0.00    -0.001 A 
ATOM     53  CE3 TRP     6      64.592  43.485  47.235  1.00  0.00     0.014 A 
ATOM     54  CE2 TRP     6      65.954  45.180  48.272  1.00  0.00     0.042 A 
ATOM     55  CZ3 TRP     6      65.524  43.355  46.214  1.00  0.00     0.001 A 
ATOM     56  CH2 TRP     6      66.666  44.148  46.216  1.00  0.00     0.002 A 
ATOM     57  CZ2 TRP     6      66.884  45.058  47.245  1.00  0.00     0.030 A 
ATOM     58  NE1 TRP     6      65.902  45.930  49.372  1.00  0.00    -0.365 N 
ATOM     59  CD1 TRP     6      64.777  45.663  50.036  1.00  0.00     0.097 A 
ATOM     60  HE1 TRP     6      66.605  46.576  49.673  1.00 99.99     0.165 HD
ENDBRANCH  50  51
ENDBRANCH  49  50
BRANCH  49  61
ATOM     61  C   TRP     6      61.645  43.125  51.768  1.00  0.00     0.251 C 
ATOM     62  N   ARG     7      60.529  42.432  51.539  1.00  0.00    -0.338 N 
ATOM     63  H   ARG     7      60.391  41.960  50.668  1.00 99.99     0.164 HD
ATOM     64  O   TRP     6      61.758  43.923  52.693  1.00  0.00    -0.271 OA
BRANCH  62  65
ATOM     65  CA  ARG     7      59.360  42.360  52.444  1.00  0.00     0.159 C 
BRANCH  65  66
ATOM     66  CB  ARG     7      58.117  41.992  51.627  1.00  0.00     0.034 C 
BRANCH  66  67
ATOM     67  CG  ARG     7      58.173  40.523  51.191  1.00  0.00     0.027 C 
BRANCH  67  68
ATOM     68  CD  ARG     7      56.828  39.802  51.322  1.00  0.00     0.116 C 
BRANCH  68  69
ATOM     69  NE  ARG     7      56.472  39.491  52.724  1.00  0.00    -0.212 N 
ATOM     70  CZ  ARG     7      55.630  40.131  53.547  1.00  0.00     0.666 C 
ATOM     71  NH2 ARG     7      55.316  39.577  54.710  1.00  0.00    -0.235 N 
ATOM     72  NH1 ARG     7      54.992  41.246  53.218  1.00  0.00    -0.235 N 
ATOM     73 2HH2 ARG     7      55.684  38.685  54.958  1.00 99.99     0.174 HD
ATOM     74 1HH2 ARG     7      54.683  40.051  55.319  1.00 99.99     0.174 HD
ATOM     75 1HH1 ARG     7      54.382  41.691  53.869  1.00 99.99     0.174 HD
ATOM     76 2HH1 ARG     7      55.186  41.681  52.340  1.00 99.99     0.174 HD
ATOM     77  HE  ARG     7      56.969  38.714  53.100  1.00 99.99     0.178 HD
ENDBRANCH  68  69
ENDBRANCH  67  68
ENDBRANCH  66  67
ENDBRANCH  65  66
BRANCH  65  78
ATOM     78  C   ARG     7      59.581  41.354  53.599  1.00  0.00     0.251 C 
ATOM     79  O   ARG     7      58.662  40.988  54.328  1.00  0.00    -0.271 OA
ATOM     80  N   ARG     8      60.804  40.838  53.696  1.00  0.00    -0.336 N 
ATOM     81  H   ARG     8      61.486  40.968  52.978  1.00 99.99     0.164 HD
BRANCH  80  82
ATOM     82  CA  ARG     8      61.290  40.096  54.878  1.00  0.00     0.168 C 
BRANCH  82  83
ATOM     83  CB  ARG     8      61.915  38.764  54.458  1.00  0.00     0.035 C 
BRANCH  83  84
ATOM     84  CG  ARG     8      62.336  38.683  52.993  1.00  0.00     0.027 C 
BRANCH  84  85
ATOM     85  CD  ARG     8      63.738  38.082  52.936  1.00  0.00     0.116 C 
BRANCH  85  86
ATOM     86  NE  ARG     8      64.660  38.931  53.705  1.00  0.00    -0.212 N 
ATOM     87  HE  ARG     8      64.409  39.062  54.660  1.00 99.99     0.178 HD
ATOM     88  CZ  ARG     8      65.741  39.557  53.233  1.00  0.00     0.666 C 
ATOM     89  NH1 ARG     8      66.102  39.481  51.958  1.00  0.00    -0.235 N 
ATOM     90  NH2 ARG     8      66.511  40.250  54.058  1.00  0.00    -0.235 N 
ATOM     91 2HH1 ARG     8      65.542  38.948  51.328  1.00 99.99     0.174 HD
ATOM     92 1HH1 ARG     8      66.914  39.960  51.630  1.00 99.99     0.174 HD
ATOM     93 2HH2 ARG     8      66.285  40.311  55.027  1.00 99.99     0.174 HD
ATOM     94 1HH2 ARG     8      67.318  40.717  53.701  1.00 99.99     0.174 HD
ENDBRANCH  85  86
ENDBRANCH  84  85
ENDBRANCH  83  84
ENDBRANCH  82  83
BRANCH  82  95
ATOM     95  C   ARG     8      62.415  40.925  55.512  1.00  0.00     0.206 C 
ATOM     96  O   ARG     8      63.193  41.549  54.759  1.00 99.99    -0.646 OA
ATOM     97  OXT ARG     8      62.512  40.809  56.755  1.00 99.99    -0.646 OA
ENDBRANCH  82  95
ENDBRANCH  80  82
ENDBRANCH  65  78
ENDBRANCH  62  65
ENDBRANCH  49  61
ENDBRANCH  47  49
ENDBRANCH  40  45
ENDBRANCH  37  40
ENDBRANCH  32  36
ENDBRANCH  29  32
ENDBRANCH  27  28
BRANCH  27  98
ATOM     98  CB  TRP     3      57.494  42.558  46.387  1.00  0.00     0.059 C 
BRANCH  98  99
ATOM     99  CG  TRP     3      56.751  42.659  47.719  1.00  0.00    -0.016 A 
ATOM    100  CD2 TRP     3      55.859  41.724  48.224  1.00  0.00    -0.001 A 
ATOM    101  CE3 TRP     3      55.564  40.420  47.856  1.00  0.00     0.014 A 
ATOM    102  CE2 TRP     3      55.101  42.371  49.187  1.00  0.00     0.042 A 
ATOM    103  CZ3 TRP     3      54.489  39.763  48.438  1.00  0.00     0.001 A 
ATOM    104  CH2 TRP     3      53.713  40.414  49.390  1.00  0.00     0.002 A 
ATOM    105  CZ2 TRP     3      54.028  41.712  49.777  1.00  0.00     0.030 A 
ATOM    106  NE1 TRP     3      55.545  43.624  49.259  1.00  0.00    -0.365 N 
ATOM    107  HE1 TRP     3      55.155  44.347  49.830  1.00 99.99     0.165 HD
ATOM    108  CD1 TRP     3      56.541  43.790  48.388  1.00  0.00     0.097 A 
ENDBRANCH  98  99
ENDBRANCH  27  98
ENDBRANCH  24  27
ENDBRANCH  22  23
BRANCH  22 109
ATOM    109  CB  ARG     2      62.712  42.771  43.182  1.00  0.00     0.034 C 
BRANCH 109 110
ATOM    110  CG  ARG     2      63.982  41.945  43.440  1.00  0.00     0.027 C 
BRANCH 110 111
ATOM    111  CD  ARG     2      65.067  42.071  42.360  1.00  0.00     0.116 C 
BRANCH 111 112
ATOM    112  NE  ARG     2      66.440  42.090  42.911  1.00  0.00    -0.212 N 
ATOM    113  HE  ARG     2      66.715  42.953  43.341  1.00 99.99     0.178 HD
ATOM    114  CZ  ARG     2      67.339  41.098  42.949  1.00  0.00     0.666 C 
ATOM    115  NH2 ARG     2      68.467  41.267  43.626  1.00  0.00    -0.235 N 
ATOM    116  NH1 ARG     2      67.106  39.902  42.428  1.00  0.00    -0.235 N 
ATOM    117 1HH2 ARG     2      69.147  40.536  43.669  1.00 99.99     0.174 HD
ATOM    118 2HH2 ARG     2      68.625  42.130  44.106  1.00 99.99     0.174 HD
ATOM    119 2HH1 ARG     2      66.231  39.735  41.980  1.00 99.99     0.174 HD
ATOM    120 1HH1 ARG     2      67.802  39.190  42.481  1.00 99.99     0.174 HD
ENDBRANCH 111 112
ENDBRANCH 110 111
ENDBRANCH 109 110
ENDBRANCH  22 109
ENDBRANCH  20  22
ENDBRANCH   5  18
ENDBRANCH   1   5
TORSDOF 39
ENDMDL
MODEL 2
REMARK VINA RESULT:      -5.4      2.923      9.602
REMARK WARNING: 32 MAX_TORS EXCEEDED!!!
REMARK  39 active torsions:
REMARK  status: ('A' for Active; 'I' for Inactive)
REMARK    1  A    between atoms: N_1  and  CA_2 
REMARK    2  A    between atoms: CA_2  and  CB_5 
REMARK    3  A    between atoms: CA_2  and  C_3 
REMARK       I    between atoms: C_3  and  N_20 
REMARK    4  A    between atoms: CB_5  and  CG_6 
REMARK    5  A    between atoms: CG_6  and  CD_7 
REMARK    6  A    between atoms: CD_7  and  NE_8 
REMARK       I    between atoms: NE_8  and  CZ_9 
REMARK       I    between atoms: CZ_9  and  NH2_11 
REMARK       I    between atoms: CZ_9  and  NH1_10 
REMARK    7  A    between atoms: N_20  and  CA_21 
REMARK    8  A    between atoms: CA_21  and  C_22 
REMARK    9  A    between atoms: CA_21  and  CB_24 
REMARK       I    between atoms: C_22  and  N_37 
REMARK   10  A    between atoms: CB_24  and  CG_25 
REMARK   11  A    between atoms: CG_25  and  CD_26 
REMARK   12  A    between atoms: CD_26  and  NE_27 
REMARK       I    between atoms: NE_27  and  CZ_28 
REMARK       I    between atoms: CZ_28  and  NH2_30 
REMARK       I    between atoms: CZ_28  and  NH1_29 
REMARK   13  A    between atoms: N_37  and  CA_38 
REMARK   14  A    between atoms: CA_38  and  C_39 
REMARK   15  A    between atoms: CA_38  and  CB_41 
REMARK       I    between atoms: C_39  and  N_53 
REMARK   16  A    between atoms: CB_41  and  CG_42 
REMARK   17  A    between atoms: N_53  and  CA_54 
REMARK   18  A    between atoms: CA_54  and  CB_57 
REMARK   19  A    between atoms: CA_54  and  C_55 
REMARK       I    between atoms: C_55  and  N_61 
REMARK   20  A    between atoms: N_61  and  CA_62 
REMARK   21  A    between atoms: CA_62  and  CB_65 
REMARK   22  A    between atoms: CA_62  and  C_63 
REMARK       I    between atoms: C_63  and  N_70 
REMARK   23  A    between atoms: CB_65  and  CG1_66 
REMARK   24  A    between atoms: N_70  and  CA_71 
REMARK   25  A    between atoms: CA_71  and  CB_74 
REMARK   26  A    between atoms: CA_71  and  C_72 
REMARK       I    between atoms: C_72  and  N_86 
REMARK   27  A    between atoms: CB_74  and  CG_75 
REMARK   28  A    between atoms: N_86  and  CA_87 
REMARK   29  A    between atoms: CA_87  and  CB_90 
REMARK   30  A    between atoms: CA_87  and  C_88 
REMARK       I    between atoms: C_88  and  N_103 
REMARK   31  A    between atoms: CB_90  and  CG_91 
REMARK   32  A    between atoms: CG_91  and  CD_92 
REMARK   33  A    between atoms: CD_92  and  NE_93 
REMARK       I    between atoms: NE_93  and  CZ_94 
REMARK       I    between atoms: CZ_94  and  NH2_96 
REMARK       I    between atoms: CZ_94  and  NH1_95 
REMARK   34  A    between atoms: N_103  and  CA_104 
REMARK   35  A    between atoms: CA_104  and  CB_107 
REMARK   36  A    between atoms: CA_104  and  C_105 
REMARK   37  A    between atoms: CB_107  and  CG_108 
REMARK   38  A    between atoms: CG_108  and  CD_109 
REMARK   39  A    between atoms: CD_109  and  NE_110 
REMARK       I    between atoms: NE_110  and  CZ_111 
REMARK       I    between atoms: CZ_111  and  NH1_112 
ROOT
ATOM      1  N   ARG     1      66.087  43.254  45.331  1.00  0.00    -0.058 N 
ATOM      2  H1  ARG     1      66.623  42.617  45.892  1.00 99.99     0.276 HD
ATOM      3  H2  ARG     1      66.258  43.045  44.379  1.00 99.99     0.276 HD
ATOM      4  H3  ARG     1      66.434  44.168  45.462  1.00 99.99     0.276 HD
ENDROOT
BRANCH   1   5
ATOM      5  CA  ARG     1      64.661  43.090  45.715  1.00  0.00     0.255 C 
BRANCH   5   6
ATOM      6  CB  ARG     1      64.333  41.582  45.736  1.00  0.00     0.042 C 
BRANCH   6   7
ATOM      7  CG  ARG     1      65.371  40.638  46.371  1.00  0.00     0.027 C 
BRANCH   7   8
ATOM      8  CD  ARG     1      64.781  39.652  47.384  1.00  0.00     0.116 C 
BRANCH   8   9
ATOM      9  NE  ARG     1      65.057  40.111  48.763  1.00  0.00    -0.212 N 
ATOM     10  CZ  ARG     1      65.779  39.474  49.694  1.00  0.00     0.666 C 
ATOM     11  NH2 ARG     1      65.828  39.938  50.936  1.00  0.00    -0.235 N 
ATOM     12  NH1 ARG     1      66.406  38.331  49.445  1.00  0.00    -0.235 N 
ATOM     13 1HH2 ARG     1      66.367  39.451  51.621  1.00 99.99     0.174 HD
ATOM     14 2HH2 ARG     1      65.340  40.770  51.187  1.00 99.99     0.174 HD
ATOM     15 1HH1 ARG     1      66.934  37.879  50.162  1.00 99.99     0.174 HD
ATOM     16 2HH1 ARG     1      66.344  37.932  48.534  1.00 99.99     0.174 HD
ATOM     17  HE  ARG     1      64.667  40.998  49.002  1.00 99.99     0.178 HD
ENDBRANCH   8   9
ENDBRANCH   7   8
ENDBRANCH   6   7
ENDBRANCH   5   6
BRANCH   5  18
ATOM     18  C   ARG     1      64.455  43.697  47.126  1.00  0.00     0.259 C 
ATOM     19  O   ARG     1      65.298  44.469  47.582  1.00  0.00    -0.271 OA
ATOM     20  N   ARG     2      63.304  43.453  47.756  1.00  0.00    -0.338 N 
ATOM     21  H   ARG     2      62.524  43.000  47.326  1.00 99.99     0.164 HD
BRANCH  20  22
ATOM     22  CA  ARG     2      63.078  43.865  49.159  1.00  0.00     0.159 C 
BRANCH  22  23
ATOM     23  C   ARG     2      62.531  42.676  49.964  1.00  0.00     0.251 C 
ATOM     24  N   TRP     3      61.293  42.836  50.426  1.00  0.00    -0.337 N 
ATOM     25  H   TRP     3      60.805  43.700  50.321  1.00 99.99     0.164 HD
ATOM     26  O   ARG     2      63.284  41.777  50.332  1.00  0.00    -0.271 OA
BRANCH  24  27
ATOM     27  CA  TRP     3      60.546  41.775  51.137  1.00  0.00     0.164 C 
BRANCH  27  28
ATOM     28  C   TRP     3      59.345  41.298  50.296  1.00  0.00     0.251 C 
ATOM     29  N   VAL     4      58.206  41.969  50.472  1.00  0.00    -0.338 N 
ATOM     30  H   VAL     4      58.196  42.826  50.986  1.00 99.99     0.164 HD
ATOM     31  O   TRP     3      59.512  40.525  49.355  1.00  0.00    -0.271 OA
BRANCH  29  32
ATOM     32  CA  VAL     4      56.874  41.536  49.973  1.00  0.00     0.159 C 
BRANCH  32  33
ATOM     33  CB  VAL     4      55.774  41.844  51.015  1.00  0.00     0.029 C 
ATOM     34  CG2 VAL     4      56.065  43.147  51.772  1.00  0.00     0.002 C 
ATOM     35  CG1 VAL     4      55.618  40.726  52.055  1.00  0.00     0.002 C 
ENDBRANCH  32  33
BRANCH  32  36
ATOM     36  C   VAL     4      56.526  42.020  48.543  1.00  0.00     0.251 C 
ATOM     37  N   ILE     5      57.122  41.415  47.515  1.00  0.00    -0.338 N 
ATOM     38  H   ILE     5      57.786  40.680  47.635  1.00 99.99     0.164 HD
ATOM     39  O   VAL     4      55.654  42.875  48.390  1.00  0.00    -0.271 OA
BRANCH  37  40
ATOM     40  CA  ILE     5      56.912  41.817  46.100  1.00  0.00     0.159 C 
BRANCH  40  41
ATOM     41  CB  ILE     5      58.214  42.358  45.478  1.00  0.00     0.029 C 
ATOM     42  CG2 ILE     5      58.114  43.887  45.348  1.00  0.00     0.002 C 
BRANCH  41  43
ATOM     43  CG1 ILE     5      59.464  41.880  46.241  1.00  0.00     0.002 C 
ATOM     44  CD  ILE     5      60.490  42.981  46.535  1.00  0.00     0.000 C 
ENDBRANCH  41  43
ENDBRANCH  40  41
BRANCH  40  45
ATOM     45  C   ILE     5      56.228  40.771  45.189  1.00  0.00     0.251 C 
ATOM     46  O   ILE     5      55.035  40.502  45.307  1.00  0.00    -0.271 OA
ATOM     47  N   TRP     6      57.011  40.251  44.248  1.00  0.00    -0.337 N 
ATOM     48  H   TRP     6      57.861  40.696  43.976  1.00 99.99     0.164 HD
BRANCH  47  49
ATOM     49  CA  TRP     6      56.687  39.074  43.419  1.00  0.00     0.164 C 
BRANCH  49  50
ATOM     50  CB  TRP     6      57.597  39.048  42.185  1.00  0.00     0.059 C 
BRANCH  50  51
ATOM     51  CG  TRP     6      58.157  40.424  41.822  1.00  0.00    -0.016 A 
ATOM     52  CD2 TRP     6      59.375  40.952  42.219  1.00  0.00    -0.001 A 
ATOM     53  CE3 TRP     6      60.369  40.489  43.066  1.00  0.00     0.014 A 
ATOM     54  CE2 TRP     6      59.495  42.181  41.589  1.00  0.00     0.042 A 
ATOM     55  CZ3 TRP     6      61.505  41.259  43.282  1.00  0.00     0.001 A 
ATOM     56  CH2 TRP     6      61.641  42.484  42.640  1.00  0.00     0.002 A 
ATOM     57  CZ2 TRP     6      60.636  42.948  41.798  1.00  0.00     0.030 A 
ATOM     58  NE1 TRP     6      58.387  42.368  40.873  1.00  0.00    -0.365 N 
ATOM     59  CD1 TRP     6      57.585  41.312  41.015  1.00  0.00     0.097 A 
ATOM     60  HE1 TRP     6      58.172  43.181  40.332  1.00 99.99     0.165 HD
ENDBRANCH  50  51
ENDBRANCH  49  50
BRANCH  49  61
ATOM     61  C   TRP     6      56.865  37.759  44.205  1.00  0.00     0.251 C 
ATOM     62  N   ARG     7      57.891  37.704  45.055  1.00  0.00    -0.338 N 
ATOM     63  H   ARG     7      58.570  38.437  45.082  1.00 99.99     0.164 HD
ATOM     64  O   TRP     6      56.159  36.789  43.947  1.00  0.00    -0.271 OA
BRANCH  62  65
ATOM     65  CA  ARG     7      58.208  36.567  45.948  1.00  0.00     0.159 C 
BRANCH  65  66
ATOM     66  CB  ARG     7      59.677  36.174  45.754  1.00  0.00     0.034 C 
BRANCH  66  67
ATOM     67  CG  ARG     7      60.429  37.265  44.980  1.00  0.00     0.027 C 
BRANCH  67  68
ATOM     68  CD  ARG     7      61.555  36.713  44.099  1.00  0.00     0.116 C 
BRANCH  68  69
ATOM     69  NE  ARG     7      62.507  37.756  43.657  1.00  0.00    -0.212 N 
ATOM     70  CZ  ARG     7      63.801  37.910  43.969  1.00  0.00     0.666 C 
ATOM     71  NH2 ARG     7      64.520  38.812  43.316  1.00  0.00    -0.235 N 
ATOM     72  NH1 ARG     7      64.445  37.128  44.824  1.00  0.00    -0.235 N 
ATOM     73 2HH2 ARG     7      64.109  39.352  42.586  1.00 99.99     0.174 HD
ATOM     74 1HH2 ARG     7      65.486  38.922  43.544  1.00 99.99     0.174 HD
ATOM     75 1HH1 ARG     7      65.407  37.289  45.031  1.00 99.99     0.174 HD
ATOM     76 2HH1 ARG     7      63.941  36.422  45.319  1.00 99.99     0.174 HD
ATOM     77  HE  ARG     7      62.095  38.452  43.075  1.00 99.99     0.178 HD
ENDBRANCH  68  69
ENDBRANCH  67  68
ENDBRANCH  66  67
ENDBRANCH  65  66
BRANCH  65  78
ATOM     78  C   ARG     7      57.914  36.894  47.431  1.00  0.00     0.251 C 
ATOM     79  O   ARG     7      58.778  37.339  48.183  1.00  0.00    -0.271 OA
ATOM     80  N   ARG     8      56.650  36.751  47.820  1.00  0.00    -0.336 N 
ATOM     81  H   ARG     8      55.914  36.601  47.162  1.00 99.99     0.164 HD
BRANCH  80  82
ATOM     82  CA  ARG     8      56.222  36.734  49.235  1.00  0.00     0.168 C 
BRANCH  82  83
ATOM     83  CB  ARG     8      55.264  37.892  49.522  1.00  0.00     0.035 C 
BRANCH  83  84
ATOM     84  CG  ARG     8      54.898  38.741  48.308  1.00  0.00     0.027 C 
BRANCH  84  85
ATOM     85  CD  ARG     8      53.479  38.369  47.881  1.00  0.00     0.116 C 
BRANCH  85  86
ATOM     86  NE  ARG     8      53.497  37.929  46.478  1.00  0.00    -0.212 N 
ATOM     87  HE  ARG     8      53.649  38.657  45.814  1.00 99.99     0.178 HD
ATOM     88  CZ  ARG     8      53.286  36.687  46.035  1.00  0.00     0.666 C 
ATOM     89  NH1 ARG     8      53.014  35.680  46.855  1.00  0.00    -0.235 N 
ATOM     90  NH2 ARG     8      53.383  36.428  44.739  1.00  0.00    -0.235 N 
ATOM     91 2HH1 ARG     8      52.954  35.857  47.835  1.00 99.99     0.174 HD
ATOM     92 1HH1 ARG     8      52.859  34.761  46.497  1.00 99.99     0.174 HD
ATOM     93 2HH2 ARG     8      53.609  37.155  44.095  1.00 99.99     0.174 HD
ATOM     94 1HH2 ARG     8      53.225  35.499  44.412  1.00 99.99     0.174 HD
ENDBRANCH  85  86
ENDBRANCH  84  85
ENDBRANCH  83  84
ENDBRANCH  82  83
BRANCH  82  95
ATOM     95  C   ARG     8      55.426  35.442  49.459  1.00  0.00     0.206 C 
ATOM     96  O   ARG     8      54.962  35.218  50.597  1.00 99.99    -0.646 OA
ATOM     97  OXT ARG     8      55.406  34.664  48.478  1.00 99.99    -0.646 OA
ENDBRANCH  82  95
ENDBRANCH  80  82
ENDBRANCH  65  78
ENDBRANCH  62  65
ENDBRANCH  49  61
ENDBRANCH  47  49
ENDBRANCH  40  45
ENDBRANCH  37  40
ENDBRANCH  32  36
ENDBRANCH  29  32
ENDBRANCH  27  28
BRANCH  27  98
ATOM     98  CB  TRP     3      60.058  42.287  52.498  1.00  0.00     0.059 C 
BRANCH  98  99
ATOM     99  CG  TRP     3      60.289  41.320  53.660  1.00  0.00    -0.016 A 
ATOM    100  CD2 TRP     3      61.524  40.938  54.165  1.00  0.00    -0.001 A 
ATOM    101  CE3 TRP     3      62.805  41.434  53.975  1.00  0.00     0.014 A 
ATOM    102  CE2 TRP     3      61.321  39.766  54.875  1.00  0.00     0.042 A 
ATOM    103  CZ3 TRP     3      63.896  40.741  54.480  1.00  0.00     0.001 A 
ATOM    104  CH2 TRP     3      63.701  39.553  55.176  1.00  0.00     0.002 A 
ATOM    105  CZ2 TRP     3      62.413  39.073  55.388  1.00  0.00     0.030 A 
ATOM    106  NE1 TRP     3      60.021  39.486  54.809  1.00  0.00    -0.365 N 
ATOM    107  HE1 TRP     3      59.583  38.668  55.184  1.00 99.99     0.165 HD
ATOM    108  CD1 TRP     3      59.404  40.425  54.092  1.00  0.00     0.097 A 
ENDBRANCH  98  99
ENDBRANCH  27  98
ENDBRANCH  24  27
ENDBRANCH  22  23
BRANCH  22 109
ATOM    109  CB  ARG     2      62.105  45.053  49.270  1.00  0.00     0.034 C 
BRANCH 109 110
ATOM    110  CG  ARG     2      62.752  46.399  49.631  1.00  0.00     0.027 C 
BRANCH 110 111
ATOM    111  CD  ARG     2      64.214  46.313  50.096  1.00  0.00     0.116 C 
BRANCH 111 112
ATOM    112  NE  ARG     2      65.162  46.970  49.169  1.00  0.00    -0.212 N 
ATOM    113  HE  ARG     2      64.766  47.278  48.301  1.00 99.99     0.178 HD
ATOM    114  CZ  ARG     2      66.459  47.244  49.358  1.00  0.00     0.666 C 
ATOM    115  NH2 ARG     2      67.105  47.980  48.463  1.00  0.00    -0.235 N 
ATOM    116  NH1 ARG     2      67.108  46.904  50.461  1.00  0.00    -0.235 N 
ATOM    117 1HH2 ARG     2      68.072  48.198  48.589  1.00 99.99     0.174 HD
ATOM    118 2HH2 ARG     2      66.611  48.327  47.666  1.00 99.99     0.174 HD
ATOM    119 2HH1 ARG     2      66.617  46.415  51.177  1.00 99.99     0.174 HD
ATOM    120 1HH1 ARG     2      68.075  47.130  50.562  1.00 99.99     0.174 HD
ENDBRANCH 111 112
ENDBRANCH 110 111
ENDBRANCH 109 110
ENDBRANCH  22 109
ENDBRANCH  20  22
ENDBRANCH   5  18
ENDBRANCH   1   5
TORSDOF 39
ENDMDL
MODEL 3
REMARK VINA RESULT:      -5.2      2.882      9.399
REMARK WARNING: 32 MAX_TORS EXCEEDED!!!
REMARK  39 active torsions:
REMARK  status: ('A' for Active; 'I' for Inactive)
REMARK    1  A    between atoms: N_1  and  CA_2 
REMARK    2  A    between atoms: CA_2  and  CB_5 
REMARK    3  A    between atoms: CA_2  and  C_3 
REMARK       I    between atoms: C_3  and  N_20 
REMARK    4  A    between atoms: CB_5  and  CG_6 
REMARK    5  A    between atoms: CG_6  and  CD_7 
REMARK    6  A    between atoms: CD_7  and  NE_8 
REMARK       I    between atoms: NE_8  and  CZ_9 
REMARK       I    between atoms: CZ_9  and  NH2_11 
REMARK       I    between atoms: CZ_9  and  NH1_10 
REMARK    7  A    between atoms: N_20  and  CA_21 
REMARK    8  A    between atoms: CA_21  and  C_22 
REMARK    9  A    between atoms: CA_21  and  CB_24 
REMARK       I    between atoms: C_22  and  N_37 
REMARK   10  A    between atoms: CB_24  and  CG_25 
REMARK   11  A    between atoms: CG_25  and  CD_26 
REMARK   12  A    between atoms: CD_26  and  NE_27 
REMARK       I    between atoms: NE_27  and  CZ_28 
REMARK       I    between atoms: CZ_28  and  NH2_30 
REMARK       I    between atoms: CZ_28  and  NH1_29 
REMARK   13  A    between atoms: N_37  and  CA_38 
REMARK   14  A    between atoms: CA_38  and  C_39 
REMARK   15  A    between atoms: CA_38  and  CB_41 
REMARK       I    between atoms: C_39  and  N_53 
REMARK   16  A    between atoms: CB_41  and  CG_42 
REMARK   17  A    between atoms: N_53  and  CA_54 
REMARK   18  A    between atoms: CA_54  and  CB_57 
REMARK   19  A    between atoms: CA_54  and  C_55 
REMARK       I    between atoms: C_55  and  N_61 
REMARK   20  A    between atoms: N_61  and  CA_62 
REMARK   21  A    between atoms: CA_62  and  CB_65 
REMARK   22  A    between atoms: CA_62  and  C_63 
REMARK       I    between atoms: C_63  and  N_70 
REMARK   23  A    between atoms: CB_65  and  CG1_66 
REMARK   24  A    between atoms: N_70  and  CA_71 
REMARK   25  A    between atoms: CA_71  and  CB_74 
REMARK   26  A    between atoms: CA_71  and  C_72 
REMARK       I    between atoms: C_72  and  N_86 
REMARK   27  A    between atoms: CB_74  and  CG_75 
REMARK   28  A    between atoms: N_86  and  CA_87 
REMARK   29  A    between atoms: CA_87  and  CB_90 
REMARK   30  A    between atoms: CA_87  and  C_88 
REMARK       I    between atoms: C_88  and  N_103 
REMARK   31  A    between atoms: CB_90  and  CG_91 
REMARK   32  A    between atoms: CG_91  and  CD_92 
REMARK   33  A    between atoms: CD_92  and  NE_93 
REMARK       I    between atoms: NE_93  and  CZ_94 
REMARK       I    between atoms: CZ_94  and  NH2_96 
REMARK       I    between atoms: CZ_94  and  NH1_95 
REMARK   34  A    between atoms: N_103  and  CA_104 
REMARK   35  A    between atoms: CA_104  and  CB_107 
REMARK   36  A    between atoms: CA_104  and  C_105 
REMARK   37  A    between atoms: CB_107  and  CG_108 
REMARK   38  A    between atoms: CG_108  and  CD_109 
REMARK   39  A    between atoms: CD_109  and  NE_110 
REMARK       I    between atoms: NE_110  and  CZ_111 
REMARK       I    between atoms: CZ_111  and  NH1_112 
ROOT
ATOM      1  N   ARG     1      66.112  35.549  50.511  1.00  0.00    -0.058 N 
ATOM      2  H1  ARG     1      65.732  34.816  51.083  1.00 99.99     0.276 HD
ATOM      3  H2  ARG     1      66.623  35.130  49.775  1.00 99.99     0.276 HD
ATOM      4  H3  ARG     1      66.778  36.054  51.035  1.00 99.99     0.276 HD
ENDROOT
BRANCH   1   5
ATOM      5  CA  ARG     1      64.972  36.373  50.033  1.00  0.00     0.255 C 
BRANCH   5   6
ATOM      6  CB  ARG     1      63.848  36.307  51.089  1.00  0.00     0.042 C 
BRANCH   6   7
ATOM      7  CG  ARG     1      63.002  37.574  51.308  1.00  0.00     0.027 C 
BRANCH   7   8
ATOM      8  CD  ARG     1      61.610  37.514  50.671  1.00  0.00     0.116 C 
BRANCH   8   9
ATOM      9  NE  ARG     1      61.416  38.663  49.760  1.00  0.00    -0.212 N 
ATOM     10  CZ  ARG     1      60.378  39.509  49.742  1.00  0.00     0.666 C 
ATOM     11  NH2 ARG     1      60.269  40.412  48.776  1.00  0.00    -0.235 N 
ATOM     12  NH1 ARG     1      59.392  39.441  50.627  1.00  0.00    -0.235 N 
ATOM     13 1HH2 ARG     1      59.488  41.035  48.772  1.00 99.99     0.174 HD
ATOM     14 2HH2 ARG     1      60.961  40.479  48.061  1.00 99.99     0.174 HD
ATOM     15 1HH1 ARG     1      58.631  40.086  50.584  1.00 99.99     0.174 HD
ATOM     16 2HH1 ARG     1      59.422  38.739  51.333  1.00 99.99     0.174 HD
ATOM     17  HE  ARG     1      62.153  38.814  49.104  1.00 99.99     0.178 HD
ENDBRANCH   8   9
ENDBRANCH   7   8
ENDBRANCH   6   7
ENDBRANCH   5   6
BRANCH   5  18
ATOM     18  C   ARG     1      65.453  37.836  49.863  1.00  0.00     0.259 C 
ATOM     19  O   ARG     1      66.145  38.350  50.743  1.00  0.00    -0.271 OA
ATOM     20  N   ARG     2      65.201  38.454  48.708  1.00  0.00    -0.338 N 
ATOM     21  H   ARG     2      64.822  37.994  47.907  1.00 99.99     0.164 HD
BRANCH  20  22
ATOM     22  CA  ARG     2      65.491  39.891  48.510  1.00  0.00     0.159 C 
BRANCH  22  23
ATOM     23  C   ARG     2      64.196  40.634  48.149  1.00  0.00     0.251 C 
ATOM     24  N   TRP     3      64.172  41.154  46.925  1.00  0.00    -0.337 N 
ATOM     25  H   TRP     3      64.974  41.127  46.331  1.00 99.99     0.164 HD
ATOM     26  O   ARG     2      63.375  40.911  49.022  1.00  0.00    -0.271 OA
BRANCH  24  27
ATOM     27  CA  TRP     3      62.984  41.819  46.345  1.00  0.00     0.164 C 
BRANCH  27  28
ATOM     28  C   TRP     3      62.549  41.119  45.043  1.00  0.00     0.251 C 
ATOM     29  N   VAL     4      61.941  39.941  45.189  1.00  0.00    -0.338 N 
ATOM     30  H   VAL     4      61.642  39.633  46.091  1.00 99.99     0.164 HD
ATOM     31  O   TRP     3      62.541  41.734  43.978  1.00  0.00    -0.271 OA
BRANCH  29  32
ATOM     32  CA  VAL     4      61.668  38.979  44.088  1.00  0.00     0.159 C 
BRANCH  32  33
ATOM     33  CB  VAL     4      62.132  37.556  44.479  1.00  0.00     0.029 C 
ATOM     34  CG2 VAL     4      63.628  37.527  44.823  1.00  0.00     0.002 C 
ATOM     35  CG1 VAL     4      61.890  36.531  43.364  1.00  0.00     0.002 C 
ENDBRANCH  32  33
BRANCH  32  36
ATOM     36  C   VAL     4      60.226  39.027  43.524  1.00  0.00     0.251 C 
ATOM     37  N   ILE     5      59.228  38.660  44.328  1.00  0.00    -0.338 N 
ATOM     38  H   ILE     5      59.378  38.347  45.264  1.00 99.99     0.164 HD
ATOM     39  O   VAL     4      60.032  39.481  42.397  1.00  0.00    -0.271 OA
BRANCH  37  40
ATOM     40  CA  ILE     5      57.808  38.614  43.896  1.00  0.00     0.159 C 
BRANCH  40  41
ATOM     41  CB  ILE     5      57.323  37.161  43.734  1.00  0.00     0.029 C 
ATOM     42  CG2 ILE     5      57.159  36.847  42.237  1.00  0.00     0.002 C 
BRANCH  41  43
ATOM     43  CG1 ILE     5      58.226  36.161  44.481  1.00  0.00     0.002 C 
ATOM     44  CD  ILE     5      57.496  34.931  45.033  1.00  0.00     0.000 C 
ENDBRANCH  41  43
ENDBRANCH  40  41
BRANCH  40  45
ATOM     45  C   ILE     5      56.815  39.464  44.723  1.00  0.00     0.251 C 
ATOM     46  O   ILE     5      56.460  40.580  44.349  1.00  0.00    -0.271 OA
ATOM     47  N   TRP     6      56.342  38.868  45.814  1.00  0.00    -0.337 N 
ATOM     48  H   TRP     6      56.397  37.879  45.930  1.00 99.99     0.164 HD
BRANCH  47  49
ATOM     49  CA  TRP     6      55.586  39.533  46.893  1.00  0.00     0.164 C 
BRANCH  49  50
ATOM     50  CB  TRP     6      54.845  38.479  47.726  1.00  0.00     0.059 C 
BRANCH  50  51
ATOM     51  CG  TRP     6      53.678  39.058  48.527  1.00  0.00    -0.016 A 
ATOM     52  CD2 TRP     6      53.027  38.457  49.591  1.00  0.00    -0.001 A 
ATOM     53  CE3 TRP     6      53.148  37.211  50.185  1.00  0.00     0.014 A 
ATOM     54  CE2 TRP     6      52.097  39.375  50.054  1.00  0.00     0.042 A 
ATOM     55  CZ3 TRP     6      52.336  36.877  51.261  1.00  0.00     0.001 A 
ATOM     56  CH2 TRP     6      51.414  37.800  51.742  1.00  0.00     0.002 A 
ATOM     57  CZ2 TRP     6      51.290  39.046  51.137  1.00  0.00     0.030 A 
ATOM     58  NE1 TRP     6      52.190  40.456  49.279  1.00  0.00    -0.365 N 
ATOM     59  CD1 TRP     6      53.139  40.262  48.363  1.00  0.00     0.097 A 
ATOM     60  HE1 TRP     6      51.623  41.277  49.351  1.00 99.99     0.165 HD
ENDBRANCH  50  51
ENDBRANCH  49  50
BRANCH  49  61
ATOM     61  C   TRP     6      56.513  40.348  47.818  1.00  0.00     0.251 C 
ATOM     62  N   ARG     7      56.762  41.607  47.456  1.00  0.00    -0.338 N 
ATOM     63  H   ARG     7      56.457  41.953  46.569  1.00 99.99     0.164 HD
ATOM     64  O   TRP     6      57.074  39.800  48.761  1.00  0.00    -0.271 OA
BRANCH  62  65
ATOM     65  CA  ARG     7      57.572  42.579  48.225  1.00  0.00     0.159 C 
BRANCH  65  66
ATOM     66  CB  ARG     7      57.821  43.817  47.359  1.00  0.00     0.034 C 
BRANCH  66  67
ATOM     67  CG  ARG     7      58.987  43.574  46.392  1.00  0.00     0.027 C 
BRANCH  67  68
ATOM     68  CD  ARG     7      58.678  43.999  44.953  1.00  0.00     0.116 C 
BRANCH  68  69
ATOM     69  NE  ARG     7      59.665  43.491  43.975  1.00  0.00    -0.212 N 
ATOM     70  CZ  ARG     7      59.472  42.709  42.904  1.00  0.00     0.666 C 
ATOM     71  NH2 ARG     7      60.471  42.520  42.053  1.00  0.00    -0.235 N 
ATOM     72  NH1 ARG     7      58.294  42.196  42.575  1.00  0.00    -0.235 N 
ATOM     73 2HH2 ARG     7      61.347  42.972  42.196  1.00 99.99     0.174 HD
ATOM     74 1HH2 ARG     7      60.324  41.943  41.251  1.00 99.99     0.174 HD
ATOM     75 1HH1 ARG     7      58.202  41.612  41.773  1.00 99.99     0.174 HD
ATOM     76 2HH1 ARG     7      57.512  42.336  43.181  1.00 99.99     0.174 HD
ATOM     77  HE  ARG     7      60.604  43.749  44.184  1.00 99.99     0.178 HD
ENDBRANCH  68  69
ENDBRANCH  67  68
ENDBRANCH  66  67
ENDBRANCH  65  66
BRANCH  65  78
ATOM     78  C   ARG     7      56.897  42.966  49.563  1.00  0.00     0.251 C 
ATOM     79  O   ARG     7      56.000  43.804  49.621  1.00  0.00    -0.271 OA
ATOM     80  N   ARG     8      57.281  42.272  50.632  1.00  0.00    -0.336 N 
ATOM     81  H   ARG     8      57.844  41.452  50.549  1.00 99.99     0.164 HD
BRANCH  80  82
ATOM     82  CA  ARG     8      56.977  42.671  52.022  1.00  0.00     0.168 C 
BRANCH  82  83
ATOM     83  CB  ARG     8      55.829  41.831  52.585  1.00  0.00     0.035 C 
BRANCH  83  84
ATOM     84  CG  ARG     8      55.254  40.798  51.621  1.00  0.00     0.027 C 
BRANCH  84  85
ATOM     85  CD  ARG     8      55.047  39.495  52.391  1.00  0.00     0.116 C 
BRANCH  85  86
ATOM     86  NE  ARG     8      56.255  39.199  53.175  1.00  0.00    -0.212 N 
ATOM     87  HE  ARG     8      56.511  39.905  53.830  1.00 99.99     0.178 HD
ATOM     88  CZ  ARG     8      57.036  38.123  53.052  1.00  0.00     0.666 C 
ATOM     89  NH1 ARG     8      56.794  37.173  52.157  1.00  0.00    -0.235 N 
ATOM     90  NH2 ARG     8      58.068  37.965  53.866  1.00  0.00    -0.235 N 
ATOM     91 2HH1 ARG     8      56.010  37.270  51.549  1.00 99.99     0.174 HD
ATOM     92 1HH1 ARG     8      57.395  36.379  52.085  1.00 99.99     0.174 HD
ATOM     93 2HH2 ARG     8      58.268  38.647  54.566  1.00 99.99     0.174 HD
ATOM     94 1HH2 ARG     8      58.650  37.160  53.770  1.00 99.99     0.174 HD
ENDBRANCH  85  86
ENDBRANCH  84  85
ENDBRANCH  83  84
ENDBRANCH  82  83
BRANCH  82  95
ATOM     95  C   ARG     8      58.212  42.350  52.873  1.00  0.00     0.206 C 
ATOM     96  O   ARG     8      58.945  43.292  53.241  1.00 99.99    -0.646 OA
ATOM     97  OXT ARG     8      58.430  41.127  53.035  1.00 99.99    -0.646 OA
ENDBRANCH  82  95
ENDBRANCH  80  82
ENDBRANCH  65  78
ENDBRANCH  62  65
ENDBRANCH  49  61
ENDBRANCH  47  49
ENDBRANCH  40  45
ENDBRANCH  37  40
ENDBRANCH  32  36
ENDBRANCH  29  32
ENDBRANCH  27  28
BRANCH  27  98
ATOM     98  CB  TRP     3      63.284  43.297  46.066  1.00  0.00     0.059 C 
BRANCH  98  99
ATOM     99  CG  TRP     3      64.279  43.938  47.034  1.00  0.00    -0.016 A 
ATOM    100  CD2 TRP     3      63.965  44.518  48.255  1.00  0.00    -0.001 A 
ATOM    101  CE3 TRP     3      62.817  44.497  49.032  1.00  0.00     0.014 A 
ATOM    102  CE2 TRP     3      65.028  45.340  48.592  1.00  0.00     0.042 A 
ATOM    103  CZ3 TRP     3      62.720  45.319  50.146  1.00  0.00     0.001 A 
ATOM    104  CH2 TRP     3      63.775  46.161  50.479  1.00  0.00     0.002 A 
ATOM    105  CZ2 TRP     3      64.936  46.161  49.712  1.00  0.00     0.030 A 
ATOM    106  NE1 TRP     3      65.935  45.229  47.625  1.00  0.00    -0.365 N 
ATOM    107  HE1 TRP     3      66.789  45.746  47.565  1.00 99.99     0.165 HD
ATOM    108  CD1 TRP     3      65.489  44.378  46.699  1.00  0.00     0.097 A 
ENDBRANCH  98  99
ENDBRANCH  27  98
ENDBRANCH  24  27
ENDBRANCH  22  23
BRANCH  22 109
ATOM    109  CB  ARG     2      66.544  40.130  47.414  1.00  0.00     0.034 C 
BRANCH 109 110
ATOM    110  CG  ARG     2      66.671  39.009  46.370  1.00  0.00     0.027 C 
BRANCH 110 111
ATOM    111  CD  ARG     2      67.255  39.444  45.018  1.00  0.00     0.116 C 
BRANCH 111 112
ATOM    112  NE  ARG     2      66.353  40.329  44.249  1.00  0.00    -0.212 N 
ATOM    113  HE  ARG     2      65.525  39.890  43.894  1.00 99.99     0.178 HD
ATOM    114  CZ  ARG     2      66.476  41.641  44.009  1.00  0.00     0.666 C 
ATOM    115  NH2 ARG     2      65.479  42.292  43.426  1.00  0.00    -0.235 N 
ATOM    116  NH1 ARG     2      67.513  42.350  44.429  1.00  0.00    -0.235 N 
ATOM    117 1HH2 ARG     2      65.551  43.272  43.242  1.00 99.99     0.174 HD
ATOM    118 2HH2 ARG     2      64.645  41.795  43.183  1.00 99.99     0.174 HD
ATOM    119 2HH1 ARG     2      68.238  41.889  44.935  1.00 99.99     0.174 HD
ATOM    120 1HH1 ARG     2      67.564  43.326  44.230  1.00 99.99     0.174 HD
ENDBRANCH 111 112
ENDBRANCH 110 111
ENDBRANCH 109 110
ENDBRANCH  22 109
ENDBRANCH  20  22
ENDBRANCH   5  18
ENDBRANCH   1   5
TORSDOF 39
ENDMDL
MODEL 4
REMARK VINA RESULT:      -5.2      2.710      8.944
REMARK WARNING: 32 MAX_TORS EXCEEDED!!!
REMARK  39 active torsions:
REMARK  status: ('A' for Active; 'I' for Inactive)
REMARK    1  A    between atoms: N_1  and  CA_2 
REMARK    2  A    between atoms: CA_2  and  CB_5 
REMARK    3  A    between atoms: CA_2  and  C_3 
REMARK       I    between atoms: C_3  and  N_20 
REMARK    4  A    between atoms: CB_5  and  CG_6 
REMARK    5  A    between atoms: CG_6  and  CD_7 
REMARK    6  A    between atoms: CD_7  and  NE_8 
REMARK       I    between atoms: NE_8  and  CZ_9 
REMARK       I    between atoms: CZ_9  and  NH2_11 
REMARK       I    between atoms: CZ_9  and  NH1_10 
REMARK    7  A    between atoms: N_20  and  CA_21 
REMARK    8  A    between atoms: CA_21  and  C_22 
REMARK    9  A    between atoms: CA_21  and  CB_24 
REMARK       I    between atoms: C_22  and  N_37 
REMARK   10  A    between atoms: CB_24  and  CG_25 
REMARK   11  A    between atoms: CG_25  and  CD_26 
REMARK   12  A    between atoms: CD_26  and  NE_27 
REMARK       I    between atoms: NE_27  and  CZ_28 
REMARK       I    between atoms: CZ_28  and  NH2_30 
REMARK       I    between atoms: CZ_28  and  NH1_29 
REMARK   13  A    between atoms: N_37  and  CA_38 
REMARK   14  A    between atoms: CA_38  and  C_39 
REMARK   15  A    between atoms: CA_38  and  CB_41 
REMARK       I    between atoms: C_39  and  N_53 
REMARK   16  A    between atoms: CB_41  and  CG_42 
REMARK   17  A    between atoms: N_53  and  CA_54 
REMARK   18  A    between atoms: CA_54  and  CB_57 
REMARK   19  A    between atoms: CA_54  and  C_55 
REMARK       I    between atoms: C_55  and  N_61 
REMARK   20  A    between atoms: N_61  and  CA_62 
REMARK   21  A    between atoms: CA_62  and  CB_65 
REMARK   22  A    between atoms: CA_62  and  C_63 
REMARK       I    between atoms: C_63  and  N_70 
REMARK   23  A    between atoms: CB_65  and  CG1_66 
REMARK   24  A    between atoms: N_70  and  CA_71 
REMARK   25  A    between atoms: CA_71  and  CB_74 
REMARK   26  A    between atoms: CA_71  and  C_72 
REMARK       I    between atoms: C_72  and  N_86 
REMARK   27  A    between atoms: CB_74  and  CG_75 
REMARK   28  A    between atoms: N_86  and  CA_87 
REMARK   29  A    between atoms: CA_87  and  CB_90 
REMARK   30  A    between atoms: CA_87  and  C_88 
REMARK       I    between atoms: C_88  and  N_103 
REMARK   31  A    between atoms: CB_90  and  CG_91 
REMARK   32  A    between atoms: CG_91  and  CD_92 
REMARK   33  A    between atoms: CD_92  and  NE_93 
REMARK       I    between atoms: NE_93  and  CZ_94 
REMARK       I    between atoms: CZ_94  and  NH2_96 
REMARK       I    between atoms: CZ_94  and  NH1_95 
REMARK   34  A    between atoms: N_103  and  CA_104 
REMARK   35  A    between atoms: CA_104  and  CB_107 
REMARK   36  A    between atoms: CA_104  and  C_105 
REMARK   37  A    between atoms: CB_107  and  CG_108 
REMARK   38  A    between atoms: CG_108  and  CD_109 
REMARK   39  A    between atoms: CD_109  and  NE_110 
REMARK       I    between atoms: NE_110  and  CZ_111 
REMARK       I    between atoms: CZ_111  and  NH1_112 
ROOT
ATOM      1  N   ARG     1      59.723  44.029  47.681  1.00  0.00    -0.058 N 
ATOM      2  H1  ARG     1      59.828  43.969  48.678  1.00 99.99     0.276 HD
ATOM      3  H2  ARG     1      60.188  43.257  47.276  1.00 99.99     0.276 HD
ATOM      4  H3  ARG     1      60.207  44.824  47.354  1.00 99.99     0.276 HD
ENDROOT
BRANCH   1   5
ATOM      5  CA  ARG     1      58.265  44.049  47.391  1.00  0.00     0.255 C 
BRANCH   5   6
ATOM      6  CB  ARG     1      58.037  43.409  46.006  1.00  0.00     0.042 C 
BRANCH   6   7
ATOM      7  CG  ARG     1      58.788  44.019  44.808  1.00  0.00     0.027 C 
BRANCH   7   8
ATOM      8  CD  ARG     1      59.598  43.003  43.995  1.00  0.00     0.116 C 
BRANCH   8   9
ATOM      9  NE  ARG     1      58.974  42.796  42.670  1.00  0.00    -0.212 N 
ATOM     10  CZ  ARG     1      58.035  41.895  42.355  1.00  0.00     0.666 C 
ATOM     11  NH2 ARG     1      57.666  41.727  41.091  1.00  0.00    -0.235 N 
ATOM     12  NH1 ARG     1      57.491  41.091  43.261  1.00  0.00    -0.235 N 
ATOM     13 1HH2 ARG     1      56.967  41.050  40.870  1.00 99.99     0.174 HD
ATOM     14 2HH2 ARG     1      58.074  42.276  40.365  1.00 99.99     0.174 HD
ATOM     15 1HH1 ARG     1      56.794  40.429  42.992  1.00 99.99     0.174 HD
ATOM     16 2HH1 ARG     1      57.786  41.160  44.210  1.00 99.99     0.174 HD
ATOM     17  HE  ARG     1      59.292  43.410  41.951  1.00 99.99     0.178 HD
ENDBRANCH   8   9
ENDBRANCH   7   8
ENDBRANCH   6   7
ENDBRANCH   5   6
BRANCH   5  18
ATOM     18  C   ARG     1      57.531  43.229  48.482  1.00  0.00     0.259 C 
ATOM     19  O   ARG     1      58.169  42.437  49.176  1.00  0.00    -0.271 OA
ATOM     20  N   ARG     2      56.245  43.496  48.713  1.00  0.00    -0.338 N 
ATOM     21  H   ARG     2      55.760  44.270  48.308  1.00 99.99     0.164 HD
BRANCH  20  22
ATOM     22  CA  ARG     2      55.426  42.670  49.627  1.00  0.00     0.159 C 
BRANCH  22  23
ATOM     23  C   ARG     2      55.884  42.896  51.076  1.00  0.00     0.251 C 
ATOM     24  N   TRP     3      56.589  41.897  51.602  1.00  0.00    -0.337 N 
ATOM     25  H   TRP     3      56.727  41.041  51.109  1.00 99.99     0.164 HD
ATOM     26  O   ARG     2      55.417  43.821  51.737  1.00  0.00    -0.271 OA
BRANCH  24  27
ATOM     27  CA  TRP     3      57.208  41.956  52.945  1.00  0.00     0.164 C 
BRANCH  27  28
ATOM     28  C   TRP     3      58.655  42.478  52.855  1.00  0.00     0.251 C 
ATOM     29  N   VAL     4      59.478  41.784  52.068  1.00  0.00    -0.338 N 
ATOM     30  H   VAL     4      59.121  41.082  51.453  1.00 99.99     0.164 HD
ATOM     31  O   TRP     3      58.941  43.596  53.280  1.00  0.00    -0.271 OA
BRANCH  29  32
ATOM     32  CA  VAL     4      60.956  41.943  52.028  1.00  0.00     0.159 C 
BRANCH  32  33
ATOM     33  CB  VAL     4      61.656  40.676  52.573  1.00  0.00     0.029 C 
ATOM     34  CG2 VAL     4      62.628  40.083  51.544  1.00  0.00     0.002 C 
ATOM     35  CG1 VAL     4      60.661  39.575  52.962  1.00  0.00     0.002 C 
ENDBRANCH  32  33
BRANCH  32  36
ATOM     36  C   VAL     4      61.522  42.427  50.669  1.00  0.00     0.251 C 
ATOM     37  N   ILE     5      62.757  42.929  50.649  1.00  0.00    -0.338 N 
ATOM     38  H   ILE     5      63.316  43.016  51.471  1.00 99.99     0.164 HD
ATOM     39  O   VAL     4      60.864  42.253  49.644  1.00  0.00    -0.271 OA
BRANCH  37  40
ATOM     40  CA  ILE     5      63.396  43.471  49.422  1.00  0.00     0.159 C 
BRANCH  40  41
ATOM     41  CB  ILE     5      64.278  44.691  49.749  1.00  0.00     0.029 C 
ATOM     42  CG2 ILE     5      64.893  45.232  48.447  1.00  0.00     0.002 C 
BRANCH  41  43
ATOM     43  CG1 ILE     5      63.518  45.755  50.564  1.00  0.00     0.002 C 
ATOM     44  CD  ILE     5      62.535  46.602  49.748  1.00  0.00     0.000 C 
ENDBRANCH  41  43
ENDBRANCH  40  41
BRANCH  40  45
ATOM     45  C   ILE     5      64.135  42.447  48.529  1.00  0.00     0.251 C 
ATOM     46  O   ILE     5      65.253  42.031  48.823  1.00  0.00    -0.271 OA
ATOM     47  N   TRP     6      63.443  42.019  47.478  1.00  0.00    -0.337 N 
ATOM     48  H   TRP     6      62.451  42.125  47.431  1.00 99.99     0.164 HD
BRANCH  47  49
ATOM     49  CA  TRP     6      63.992  41.244  46.349  1.00  0.00     0.164 C 
BRANCH  49  50
ATOM     50  CB  TRP     6      63.222  39.924  46.207  1.00  0.00     0.059 C 
BRANCH  50  51
ATOM     51  CG  TRP     6      61.834  39.967  46.849  1.00  0.00    -0.016 A 
ATOM     52  CD2 TRP     6      61.368  39.148  47.865  1.00  0.00    -0.001 A 
ATOM     53  CE3 TRP     6      61.921  38.063  48.525  1.00  0.00     0.014 A 
ATOM     54  CE2 TRP     6      60.096  39.598  48.180  1.00  0.00     0.042 A 
ATOM     55  CZ3 TRP     6      61.197  37.421  49.523  1.00  0.00     0.001 A 
ATOM     56  CH2 TRP     6      59.928  37.878  49.857  1.00  0.00     0.002 A 
ATOM     57  CZ2 TRP     6      59.375  38.963  49.185  1.00  0.00     0.030 A 
ATOM     58  NE1 TRP     6      59.827  40.621  47.370  1.00  0.00    -0.365 N 
ATOM     59  CD1 TRP     6      60.872  40.840  46.571  1.00  0.00     0.097 A 
ATOM     60  HE1 TRP     6      58.968  41.134  47.342  1.00 99.99     0.165 HD
ENDBRANCH  50  51
ENDBRANCH  49  50
BRANCH  49  61
ATOM     61  C   TRP     6      63.900  42.026  45.023  1.00  0.00     0.251 C 
ATOM     62  N   ARG     7      63.671  41.311  43.921  1.00  0.00    -0.338 N 
ATOM     63  H   ARG     7      63.682  40.311  43.951  1.00 99.99     0.164 HD
ATOM     64  O   TRP     6      64.152  43.226  45.000  1.00  0.00    -0.271 OA
BRANCH  62  65
ATOM     65  CA  ARG     7      63.488  41.863  42.560  1.00  0.00     0.159 C 
BRANCH  65  66
ATOM     66  CB  ARG     7      64.768  41.631  41.750  1.00  0.00     0.034 C 
BRANCH  66  67
ATOM     67  CG  ARG     7      65.605  40.507  42.374  1.00  0.00     0.027 C 
BRANCH  67  68
ATOM     68  CD  ARG     7      67.084  40.874  42.536  1.00  0.00     0.116 C 
BRANCH  68  69
ATOM     69  NE  ARG     7      67.296  42.053  43.406  1.00  0.00    -0.212 N 
ATOM     70  CZ  ARG     7      67.529  42.102  44.724  1.00  0.00     0.666 C 
ATOM     71  NH2 ARG     7      67.872  43.258  45.277  1.00  0.00    -0.235 N 
ATOM     72  NH1 ARG     7      67.549  41.030  45.504  1.00  0.00    -0.235 N 
ATOM     73 2HH2 ARG     7      67.978  44.073  44.715  1.00 99.99     0.174 HD
ATOM     74 1HH2 ARG     7      68.054  43.292  46.258  1.00 99.99     0.174 HD
ATOM     75 1HH1 ARG     7      67.719  41.119  46.483  1.00 99.99     0.174 HD
ATOM     76 2HH1 ARG     7      67.318  40.138  45.118  1.00 99.99     0.174 HD
ATOM     77  HE  ARG     7      67.211  42.923  42.927  1.00 99.99     0.178 HD
ENDBRANCH  68  69
ENDBRANCH  67  68
ENDBRANCH  66  67
ENDBRANCH  65  66
BRANCH  65  78
ATOM     78  C   ARG     7      62.262  41.247  41.845  1.00  0.00     0.251 C 
ATOM     79  O   ARG     7      61.436  41.941  41.255  1.00  0.00    -0.271 OA
ATOM     80  N   ARG     8      62.205  39.918  41.826  1.00  0.00    -0.336 N 
ATOM     81  H   ARG     8      62.979  39.356  42.112  1.00 99.99     0.164 HD
BRANCH  80  82
ATOM     82  CA  ARG     8      60.995  39.153  41.454  1.00  0.00     0.168 C 
BRANCH  82  83
ATOM     83  CB  ARG     8      61.378  37.815  40.819  1.00  0.00     0.035 C 
BRANCH  83  84
ATOM     84  CG  ARG     8      62.877  37.539  40.753  1.00  0.00     0.027 C 
BRANCH  84  85
ATOM     85  CD  ARG     8      63.125  36.138  41.308  1.00  0.00     0.116 C 
BRANCH  85  86
ATOM     86  NE  ARG     8      62.107  35.833  42.325  1.00  0.00    -0.212 N 
ATOM     87  HE  ARG     8      61.229  35.536  41.961  1.00 99.99     0.178 HD
ATOM     88  CZ  ARG     8      62.245  35.964  43.647  1.00  0.00     0.666 C 
ATOM     89  NH1 ARG     8      63.363  36.414  44.201  1.00  0.00    -0.235 N 
ATOM     90  NH2 ARG     8      61.254  35.601  44.448  1.00  0.00    -0.235 N 
ATOM     91 2HH1 ARG     8      64.124  36.675  43.611  1.00 99.99     0.174 HD
ATOM     92 1HH1 ARG     8      63.439  36.504  45.193  1.00 99.99     0.174 HD
ATOM     93 2HH2 ARG     8      60.407  35.236  44.070  1.00 99.99     0.174 HD
ATOM     94 1HH2 ARG     8      61.360  35.700  45.435  1.00 99.99     0.174 HD
ENDBRANCH  85  86
ENDBRANCH  84  85
ENDBRANCH  83  84
ENDBRANCH  82  83
BRANCH  82  95
ATOM     95  C   ARG     8      60.244  38.821  42.751  1.00  0.00     0.206 C 
ATOM     96  O   ARG     8      60.905  38.664  43.799  1.00 99.99    -0.646 OA
ATOM     97  OXT ARG     8      59.015  38.631  42.607  1.00 99.99    -0.646 OA
ENDBRANCH  82  95
ENDBRANCH  80  82
ENDBRANCH  65  78
ENDBRANCH  62  65
ENDBRANCH  49  61
ENDBRANCH  47  49
ENDBRANCH  40  45
ENDBRANCH  37  40
ENDBRANCH  32  36
ENDBRANCH  29  32
ENDBRANCH  27  28
BRANCH  27  98
ATOM     98  CB  TRP     3      57.195  40.568  53.599  1.00  0.00     0.059 C 
BRANCH  98  99
ATOM     99  CG  TRP     3      55.862  39.827  53.490  1.00  0.00    -0.016 A 
ATOM    100  CD2 TRP     3      55.522  38.908  52.508  1.00  0.00    -0.001 A 
ATOM    101  CE3 TRP     3      56.273  38.242  51.551  1.00  0.00     0.014 A 
ATOM    102  CE2 TRP     3      54.139  38.816  52.507  1.00  0.00     0.042 A 
ATOM    103  CZ3 TRP     3      55.637  37.494  50.570  1.00  0.00     0.001 A 
ATOM    104  CH2 TRP     3      54.249  37.414  50.551  1.00  0.00     0.002 A 
ATOM    105  CZ2 TRP     3      53.500  38.061  51.529  1.00  0.00     0.030 A 
ATOM    106  NE1 TRP     3      53.690  39.627  53.462  1.00  0.00    -0.365 N 
ATOM    107  HE1 TRP     3      52.727  39.812  53.662  1.00 99.99     0.165 HD
ATOM    108  CD1 TRP     3      54.724  40.222  54.057  1.00  0.00     0.097 A 
ENDBRANCH  98  99
ENDBRANCH  27  98
ENDBRANCH  24  27
ENDBRANCH  22  23
BRANCH  22 109
ATOM    109  CB  ARG     2      55.506  41.170  49.290  1.00  0.00     0.034 C 
BRANCH 109 110
ATOM    110  CG  ARG     2      54.953  40.777  47.911  1.00  0.00     0.027 C 
BRANCH 110 111
ATOM    111  CD  ARG     2      55.233  39.327  47.489  1.00  0.00     0.116 C 
BRANCH 111 112
ATOM    112  NE  ARG     2      56.567  39.144  46.875  1.00  0.00    -0.212 N 
ATOM    113  HE  ARG     2      57.328  39.559  47.377  1.00 99.99     0.178 HD
ATOM    114  CZ  ARG     2      56.890  38.462  45.769  1.00  0.00     0.666 C 
ATOM    115  NH2 ARG     2      58.168  38.286  45.463  1.00  0.00    -0.235 N 
ATOM    116  NH1 ARG     2      55.986  37.855  45.014  1.00  0.00    -0.235 N 
ATOM    117 1HH2 ARG     2      58.429  37.776  44.644  1.00 99.99     0.174 HD
ATOM    118 2HH2 ARG     2      58.872  38.657  46.069  1.00 99.99     0.174 HD
ATOM    119 2HH1 ARG     2      55.025  37.915  45.272  1.00 99.99     0.174 HD
ATOM    120 1HH1 ARG     2      56.270  37.355  44.199  1.00 99.99     0.174 HD
ENDBRANCH 111 112
ENDBRANCH 110 111
ENDBRANCH 109 110
ENDBRANCH  22 109
ENDBRANCH  20  22
ENDBRANCH   5  18
ENDBRANCH   1   5
TORSDOF 39
ENDMDL
MODEL 5
REMARK VINA RESULT:      -5.2      2.575      8.919
REMARK WARNING: 32 MAX_TORS EXCEEDED!!!
REMARK  39 active torsions:
REMARK  status: ('A' for Active; 'I' for Inactive)
REMARK    1  A    between atoms: N_1  and  CA_2 
REMARK    2  A    between atoms: CA_2  and  CB_5 
REMARK    3  A    between atoms: CA_2  and  C_3 
REMARK       I    between atoms: C_3  and  N_20 
REMARK    4  A    between atoms: CB_5  and  CG_6 
REMARK    5  A    between atoms: CG_6  and  CD_7 
REMARK    6  A    between atoms: CD_7  and  NE_8 
REMARK       I    between atoms: NE_8  and  CZ_9 
REMARK       I    between atoms: CZ_9  and  NH2_11 
REMARK       I    between atoms: CZ_9  and  NH1_10 
REMARK    7  A    between atoms: N_20  and  CA_21 
REMARK    8  A    between atoms: CA_21  and  C_22 
REMARK    9  A    between atoms: CA_21  and  CB_24 
REMARK       I    between atoms: C_22  and  N_37 
REMARK   10  A    between atoms: CB_24  and  CG_25 
REMARK   11  A    between atoms: CG_25  and  CD_26 
REMARK   12  A    between atoms: CD_26  and  NE_27 
REMARK       I    between atoms: NE_27  and  CZ_28 
REMARK       I    between atoms: CZ_28  and  NH2_30 
REMARK       I    between atoms: CZ_28  and  NH1_29 
REMARK   13  A    between atoms: N_37  and  CA_38 
REMARK   14  A    between atoms: CA_38  and  C_39 
REMARK   15  A    between atoms: CA_38  and  CB_41 
REMARK       I    between atoms: C_39  and  N_53 
REMARK   16  A    between atoms: CB_41  and  CG_42 
REMARK   17  A    between atoms: N_53  and  CA_54 
REMARK   18  A    between atoms: CA_54  and  CB_57 
REMARK   19  A    between atoms: CA_54  and  C_55 
REMARK       I    between atoms: C_55  and  N_61 
REMARK   20  A    between atoms: N_61  and  CA_62 
REMARK   21  A    between atoms: CA_62  and  CB_65 
REMARK   22  A    between atoms: CA_62  and  C_63 
REMARK       I    between atoms: C_63  and  N_70 
REMARK   23  A    between atoms: CB_65  and  CG1_66 
REMARK   24  A    between atoms: N_70  and  CA_71 
REMARK   25  A    between atoms: CA_71  and  CB_74 
REMARK   26  A    between atoms: CA_71  and  C_72 
REMARK       I    between atoms: C_72  and  N_86 
REMARK   27  A    between atoms: CB_74  and  CG_75 
REMARK   28  A    between atoms: N_86  and  CA_87 
REMARK   29  A    between atoms: CA_87  and  CB_90 
REMARK   30  A    between atoms: CA_87  and  C_88 
REMARK       I    between atoms: C_88  and  N_103 
REMARK   31  A    between atoms: CB_90  and  CG_91 
REMARK   32  A    between atoms: CG_91  and  CD_92 
REMARK   33  A    between atoms: CD_92  and  NE_93 
REMARK       I    between atoms: NE_93  and  CZ_94 
REMARK       I    between atoms: CZ_94  and  NH2_96 
REMARK       I    between atoms: CZ_94  and  NH1_95 
REMARK   34  A    between atoms: N_103  and  CA_104 
REMARK   35  A    between atoms: CA_104  and  CB_107 
REMARK   36  A    between atoms: CA_104  and  C_105 
REMARK   37  A    between atoms: CB_107  and  CG_108 
REMARK   38  A    between atoms: CG_108  and  CD_109 
REMARK   39  A    between atoms: CD_109  and  NE_110 
REMARK       I    between atoms: NE_110  and  CZ_111 
REMARK       I    between atoms: CZ_111  and  NH1_112 
ROOT
ATOM      1  N   ARG     1      52.017  41.237  49.876  1.00  0.00    -0.058 N 
ATOM      2  H1  ARG     1      51.507  41.278  49.012  1.00 99.99     0.276 HD
ATOM      3  H2  ARG     1      51.385  40.989  50.595  1.00 99.99     0.276 HD
ATOM      4  H3  ARG     1      52.330  42.143  50.108  1.00 99.99     0.276 HD
ENDROOT
BRANCH   1   5
ATOM      5  CA  ARG     1      53.113  40.250  49.696  1.00  0.00     0.255 C 
BRANCH   5   6
ATOM      6  CB  ARG     1      52.683  39.240  48.610  1.00  0.00     0.042 C 
BRANCH   6   7
ATOM      7  CG  ARG     1      53.046  37.760  48.831  1.00  0.00     0.027 C 
BRANCH   7   8
ATOM      8  CD  ARG     1      52.775  36.863  47.619  1.00  0.00     0.116 C 
BRANCH   8   9
ATOM      9  NE  ARG     1      53.150  37.563  46.371  1.00  0.00    -0.212 N 
ATOM     10  CZ  ARG     1      54.308  37.458  45.707  1.00  0.00     0.666 C 
ATOM     11  NH2 ARG     1      54.562  38.252  44.675  1.00  0.00    -0.235 N 
ATOM     12  NH1 ARG     1      55.270  36.625  46.085  1.00  0.00    -0.235 N 
ATOM     13 1HH2 ARG     1      55.431  38.166  44.191  1.00 99.99     0.174 HD
ATOM     14 2HH2 ARG     1      53.890  38.926  44.374  1.00 99.99     0.174 HD
ATOM     15 1HH1 ARG     1      56.123  36.573  45.569  1.00 99.99     0.174 HD
ATOM     16 2HH1 ARG     1      55.127  36.053  46.889  1.00 99.99     0.174 HD
ATOM     17  HE  ARG     1      52.448  38.162  45.993  1.00 99.99     0.178 HD
ENDBRANCH   8   9
ENDBRANCH   7   8
ENDBRANCH   6   7
ENDBRANCH   5   6
BRANCH   5  18
ATOM     18  C   ARG     1      54.390  41.002  49.245  1.00  0.00     0.259 C 
ATOM     19  O   ARG     1      54.745  40.938  48.068  1.00  0.00    -0.271 OA
ATOM     20  N   ARG     2      55.000  41.795  50.126  1.00  0.00    -0.338 N 
ATOM     21  H   ARG     2      54.618  42.023  51.021  1.00 99.99     0.164 HD
BRANCH  20  22
ATOM     22  CA  ARG     2      56.301  42.436  49.833  1.00  0.00     0.159 C 
BRANCH  22  23
ATOM     23  C   ARG     2      57.003  42.803  51.149  1.00  0.00     0.251 C 
ATOM     24  N   TRP     3      58.115  42.117  51.400  1.00  0.00    -0.337 N 
ATOM     25  H   TRP     3      58.410  41.368  50.811  1.00 99.99     0.164 HD
ATOM     26  O   ARG     2      56.430  43.500  51.985  1.00  0.00    -0.271 OA
BRANCH  24  27
ATOM     27  CA  TRP     3      58.994  42.386  52.560  1.00  0.00     0.164 C 
BRANCH  27  28
ATOM     28  C   TRP     3      60.436  42.668  52.096  1.00  0.00     0.251 C 
ATOM     29  N   VAL     4      60.815  42.066  50.969  1.00  0.00    -0.338 N 
ATOM     30  H   VAL     4      60.144  41.608  50.388  1.00 99.99     0.164 HD
ATOM     31  O   TRP     3      61.085  43.583  52.601  1.00  0.00    -0.271 OA
BRANCH  29  32
ATOM     32  CA  VAL     4      62.216  41.984  50.474  1.00  0.00     0.159 C 
BRANCH  32  33
ATOM     33  CB  VAL     4      62.567  40.533  50.069  1.00  0.00     0.029 C 
ATOM     34  CG2 VAL     4      61.926  40.151  48.728  1.00  0.00     0.002 C 
ATOM     35  CG1 VAL     4      62.112  39.504  51.113  1.00  0.00     0.002 C 
ENDBRANCH  32  33
BRANCH  32  36
ATOM     36  C   VAL     4      62.588  43.034  49.397  1.00  0.00     0.251 C 
ATOM     37  N   ILE     5      63.852  43.077  48.977  1.00  0.00    -0.338 N 
ATOM     38  H   ILE     5      64.561  42.473  49.337  1.00 99.99     0.164 HD
ATOM     39  O   VAL     4      61.703  43.729  48.899  1.00  0.00    -0.271 OA
BRANCH  37  40
ATOM     40  CA  ILE     5      64.348  44.067  47.986  1.00  0.00     0.159 C 
BRANCH  40  41
ATOM     41  CB  ILE     5      65.744  44.590  48.375  1.00  0.00     0.029 C 
ATOM     42  CG2 ILE     5      65.595  45.673  49.456  1.00  0.00     0.002 C 
BRANCH  41  43
ATOM     43  CG1 ILE     5      66.702  43.449  48.767  1.00  0.00     0.002 C 
ATOM     44  CD  ILE     5      67.793  43.148  47.732  1.00  0.00     0.000 C 
ENDBRANCH  41  43
ENDBRANCH  40  41
BRANCH  40  45
ATOM     45  C   ILE     5      64.286  43.636  46.502  1.00  0.00     0.251 C 
ATOM     46  O   ILE     5      65.148  43.983  45.698  1.00  0.00    -0.271 OA
ATOM     47  N   TRP     6      63.277  42.824  46.197  1.00  0.00    -0.337 N 
ATOM     48  H   TRP     6      62.786  42.318  46.903  1.00 99.99     0.164 HD
BRANCH  47  49
ATOM     49  CA  TRP     6      62.849  42.468  44.831  1.00  0.00     0.164 C 
BRANCH  49  50
ATOM     50  CB  TRP     6      63.488  41.134  44.423  1.00  0.00     0.059 C 
BRANCH  50  51
ATOM     51  CG  TRP     6      64.614  41.294  43.400  1.00  0.00    -0.016 A 
ATOM     52  CD2 TRP     6      64.486  41.279  42.021  1.00  0.00    -0.001 A 
ATOM     53  CE3 TRP     6      63.409  41.054  41.179  1.00  0.00     0.014 A 
ATOM     54  CE2 TRP     6      65.746  41.541  41.507  1.00  0.00     0.042 A 
ATOM     55  CZ3 TRP     6      63.588  41.100  39.803  1.00  0.00     0.001 A 
ATOM     56  CH2 TRP     6      64.845  41.379  39.279  1.00  0.00     0.002 A 
ATOM     57  CZ2 TRP     6      65.925  41.596  40.129  1.00  0.00     0.030 A 
ATOM     58  NE1 TRP     6      66.574  41.682  42.541  1.00  0.00    -0.365 N 
ATOM     59  CD1 TRP     6      65.891  41.533  43.677  1.00  0.00     0.097 A 
ATOM     60  HE1 TRP     6      67.558  41.850  42.483  1.00 99.99     0.165 HD
ENDBRANCH  50  51
ENDBRANCH  49  50
BRANCH  49  61
ATOM     61  C   TRP     6      61.315  42.344  44.730  1.00  0.00     0.251 C 
ATOM     62  N   ARG     7      60.836  41.678  43.678  1.00  0.00    -0.338 N 
ATOM     63  H   ARG     7      61.445  41.386  42.940  1.00 99.99     0.164 HD
ATOM     64  O   TRP     6      60.597  42.943  45.524  1.00  0.00    -0.271 OA
BRANCH  62  65
ATOM     65  CA  ARG     7      59.408  41.392  43.419  1.00  0.00     0.159 C 
BRANCH  65  66
ATOM     66  CB  ARG     7      58.860  42.431  42.435  1.00  0.00     0.034 C 
BRANCH  66  67
ATOM     67  CG  ARG     7      59.971  42.930  41.502  1.00  0.00     0.027 C 
BRANCH  67  68
ATOM     68  CD  ARG     7      59.502  43.127  40.057  1.00  0.00     0.116 C 
BRANCH  68  69
ATOM     69  NE  ARG     7      58.606  42.047  39.587  1.00  0.00    -0.212 N 
ATOM     70  CZ  ARG     7      58.918  40.833  39.114  1.00  0.00     0.666 C 
ATOM     71  NH2 ARG     7      57.951  39.947  38.919  1.00  0.00    -0.235 N 
ATOM     72  NH1 ARG     7      60.164  40.416  38.933  1.00  0.00    -0.235 N 
ATOM     73 2HH2 ARG     7      57.007  40.175  39.143  1.00 99.99     0.174 HD
ATOM     74 1HH2 ARG     7      58.185  39.040  38.574  1.00 99.99     0.174 HD
ATOM     75 1HH1 ARG     7      60.345  39.505  38.570  1.00 99.99     0.174 HD
ATOM     76 2HH1 ARG     7      60.921  41.048  39.092  1.00 99.99     0.174 HD
ATOM     77  HE  ARG     7      57.641  42.295  39.598  1.00 99.99     0.178 HD
ENDBRANCH  68  69
ENDBRANCH  67  68
ENDBRANCH  66  67
ENDBRANCH  65  66
BRANCH  65  78
ATOM     78  C   ARG     7      59.192  39.956  42.883  1.00  0.00     0.251 C 
ATOM     79  O   ARG     7      58.582  39.735  41.839  1.00  0.00    -0.271 OA
ATOM     80  N   ARG     8      59.785  38.982  43.570  1.00  0.00    -0.336 N 
ATOM     81  H   ARG     8      60.454  39.179  44.285  1.00 99.99     0.164 HD
BRANCH  80  82
ATOM     82  CA  ARG     8      59.473  37.548  43.397  1.00  0.00     0.168 C 
BRANCH  82  83
ATOM     83  CB  ARG     8      60.601  36.680  43.956  1.00  0.00     0.035 C 
BRANCH  83  84
ATOM     84  CG  ARG     8      61.920  37.411  44.193  1.00  0.00     0.027 C 
BRANCH  84  85
ATOM     85  CD  ARG     8      62.353  37.151  45.634  1.00  0.00     0.116 C 
BRANCH  85  86
ATOM     86  NE  ARG     8      61.169  37.173  46.506  1.00  0.00    -0.212 N 
ATOM     87  HE  ARG     8      60.430  37.763  46.192  1.00 99.99     0.178 HD
ATOM     88  CZ  ARG     8      61.028  36.527  47.666  1.00  0.00     0.666 C 
ATOM     89  NH1 ARG     8      61.993  35.774  48.179  1.00  0.00    -0.235 N 
ATOM     90  NH2 ARG     8      59.879  36.600  48.322  1.00  0.00    -0.235 N 
ATOM     91 2HH1 ARG     8      62.858  35.696  47.688  1.00 99.99     0.174 HD
ATOM     92 1HH1 ARG     8      61.862  35.303  49.050  1.00 99.99     0.174 HD
ATOM     93 2HH2 ARG     8      59.123  37.137  47.957  1.00 99.99     0.174 HD
ATOM     94 1HH2 ARG     8      59.778  36.116  49.189  1.00 99.99     0.174 HD
ENDBRANCH  85  86
ENDBRANCH  84  85
ENDBRANCH  83  84
ENDBRANCH  82  83
BRANCH  82  95
ATOM     95  C   ARG     8      58.228  37.243  44.241  1.00  0.00     0.206 C 
ATOM     96  O   ARG     8      57.151  37.010  43.652  1.00 99.99    -0.646 OA
ATOM     97  OXT ARG     8      58.394  37.363  45.476  1.00 99.99    -0.646 OA
ENDBRANCH  82  95
ENDBRANCH  80  82
ENDBRANCH  65  78
ENDBRANCH  62  65
ENDBRANCH  49  61
ENDBRANCH  47  49
ENDBRANCH  40  45
ENDBRANCH  37  40
ENDBRANCH  32  36
ENDBRANCH  29  32
ENDBRANCH  27  28
BRANCH  27  98
ATOM     98  CB  TRP     3      58.982  41.195  53.526  1.00  0.00     0.059 C 
BRANCH  98  99
ATOM     99  CG  TRP     3      58.171  39.992  53.042  1.00  0.00    -0.016 A 
ATOM    100  CD2 TRP     3      56.841  39.735  53.341  1.00  0.00    -0.001 A 
ATOM    101  CE3 TRP     3      55.843  40.515  53.908  1.00  0.00     0.014 A 
ATOM    102  CE2 TRP     3      56.628  38.388  53.097  1.00  0.00     0.042 A 
ATOM    103  CZ3 TRP     3      54.629  39.939  54.254  1.00  0.00     0.001 A 
ATOM    104  CH2 TRP     3      54.416  38.584  54.030  1.00  0.00     0.002 A 
ATOM    105  CZ2 TRP     3      55.408  37.811  53.436  1.00  0.00     0.030 A 
ATOM    106  NE1 TRP     3      57.776  37.883  52.651  1.00  0.00    -0.365 N 
ATOM    107  HE1 TRP     3      57.944  36.919  52.441  1.00 99.99     0.165 HD
ATOM    108  CD1 TRP     3      58.695  38.848  52.607  1.00  0.00     0.097 A 
ENDBRANCH  98  99
ENDBRANCH  27  98
ENDBRANCH  24  27
ENDBRANCH  22  23
BRANCH  22 109
ATOM    109  CB  ARG     2      56.150  43.696  48.962  1.00  0.00     0.034 C 
BRANCH 109 110
ATOM    110  CG  ARG     2      57.297  43.949  47.971  1.00  0.00     0.027 C 
BRANCH 110 111
ATOM    111  CD  ARG     2      57.307  43.029  46.741  1.00  0.00     0.116 C 
BRANCH 111 112
ATOM    112  NE  ARG     2      58.266  41.908  46.858  1.00  0.00    -0.212 N 
ATOM    113  HE  ARG     2      59.174  42.157  47.203  1.00 99.99     0.178 HD
ATOM    114  CZ  ARG     2      58.065  40.608  46.608  1.00  0.00     0.666 C 
ATOM    115  NH2 ARG     2      59.010  39.732  46.921  1.00  0.00    -0.235 N 
ATOM    116  NH1 ARG     2      56.912  40.136  46.158  1.00  0.00    -0.235 N 
ATOM    117 1HH2 ARG     2      58.877  38.757  46.745  1.00 99.99     0.174 HD
ATOM    118 2HH2 ARG     2      59.855  40.054  47.348  1.00 99.99     0.174 HD
ATOM    119 2HH1 ARG     2      56.165  40.774  45.988  1.00 99.99     0.174 HD
ATOM    120 1HH1 ARG     2      56.804  39.160  45.987  1.00 99.99     0.174 HD
ENDBRANCH 111 112
ENDBRANCH 110 111
ENDBRANCH 109 110
ENDBRANCH  22 109
ENDBRANCH  20  22
ENDBRANCH   5  18
ENDBRANCH   1   5
TORSDOF 39
ENDMDL
MODEL 6
REMARK VINA RESULT:      -5.1      2.698     10.507
REMARK WARNING: 32 MAX_TORS EXCEEDED!!!
REMARK  39 active torsions:
REMARK  status: ('A' for Active; 'I' for Inactive)
REMARK    1  A    between atoms: N_1  and  CA_2 
REMARK    2  A    between atoms: CA_2  and  CB_5 
REMARK    3  A    between atoms: CA_2  and  C_3 
REMARK       I    between atoms: C_3  and  N_20 
REMARK    4  A    between atoms: CB_5  and  CG_6 
REMARK    5  A    between atoms: CG_6  and  CD_7 
REMARK    6  A    between atoms: CD_7  and  NE_8 
REMARK       I    between atoms: NE_8  and  CZ_9 
REMARK       I    between atoms: CZ_9  and  NH2_11 
REMARK       I    between atoms: CZ_9  and  NH1_10 
REMARK    7  A    between atoms: N_20  and  CA_21 
REMARK    8  A    between atoms: CA_21  and  C_22 
REMARK    9  A    between atoms: CA_21  and  CB_24 
REMARK       I    between atoms: C_22  and  N_37 
REMARK   10  A    between atoms: CB_24  and  CG_25 
REMARK   11  A    between atoms: CG_25  and  CD_26 
REMARK   12  A    between atoms: CD_26  and  NE_27 
REMARK       I    between atoms: NE_27  and  CZ_28 
REMARK       I    between atoms: CZ_28  and  NH2_30 
REMARK       I    between atoms: CZ_28  and  NH1_29 
REMARK   13  A    between atoms: N_37  and  CA_38 
REMARK   14  A    between atoms: CA_38  and  C_39 
REMARK   15  A    between atoms: CA_38  and  CB_41 
REMARK       I    between atoms: C_39  and  N_53 
REMARK   16  A    between atoms: CB_41  and  CG_42 
REMARK   17  A    between atoms: N_53  and  CA_54 
REMARK   18  A    between atoms: CA_54  and  CB_57 
REMARK   19  A    between atoms: CA_54  and  C_55 
REMARK       I    between atoms: C_55  and  N_61 
REMARK   20  A    between atoms: N_61  and  CA_62 
REMARK   21  A    between atoms: CA_62  and  CB_65 
REMARK   22  A    between atoms: CA_62  and  C_63 
REMARK       I    between atoms: C_63  and  N_70 
REMARK   23  A    between atoms: CB_65  and  CG1_66 
REMARK   24  A    between atoms: N_70  and  CA_71 
REMARK   25  A    between atoms: CA_71  and  CB_74 
REMARK   26  A    between atoms: CA_71  and  C_72 
REMARK       I    between atoms: C_72  and  N_86 
REMARK   27  A    between atoms: CB_74  and  CG_75 
REMARK   28  A    between atoms: N_86  and  CA_87 
REMARK   29  A    between atoms: CA_87  and  CB_90 
REMARK   30  A    between atoms: CA_87  and  C_88 
REMARK       I    between atoms: C_88  and  N_103 
REMARK   31  A    between atoms: CB_90  and  CG_91 
REMARK   32  A    between atoms: CG_91  and  CD_92 
REMARK   33  A    between atoms: CD_92  and  NE_93 
REMARK       I    between atoms: NE_93  and  CZ_94 
REMARK       I    between atoms: CZ_94  and  NH2_96 
REMARK       I    between atoms: CZ_94  and  NH1_95 
REMARK   34  A    between atoms: N_103  and  CA_104 
REMARK   35  A    between atoms: CA_104  and  CB_107 
REMARK   36  A    between atoms: CA_104  and  C_105 
REMARK   37  A    between atoms: CB_107  and  CG_108 
REMARK   38  A    between atoms: CG_108  and  CD_109 
REMARK   39  A    between atoms: CD_109  and  NE_110 
REMARK       I    between atoms: NE_110  and  CZ_111 
REMARK       I    between atoms: CZ_111  and  NH1_112 
ROOT
ATOM      1  N   ARG     1      67.706  41.004  47.026  1.00  0.00    -0.058 N 
ATOM      2  H1  ARG     1      67.449  40.130  47.447  1.00 99.99     0.276 HD
ATOM      3  H2  ARG     1      67.479  40.960  46.064  1.00 99.99     0.276 HD
ATOM      4  H3  ARG     1      68.688  41.100  47.056  1.00 99.99     0.276 HD
ENDROOT
BRANCH   1   5
ATOM      5  CA  ARG     1      66.974  42.076  47.749  1.00  0.00     0.255 C 
BRANCH   5   6
ATOM      6  CB  ARG     1      66.305  42.996  46.706  1.00  0.00     0.042 C 
BRANCH   6   7
ATOM      7  CG  ARG     1      66.531  44.513  46.846  1.00  0.00     0.027 C 
BRANCH   7   8
ATOM      8  CD  ARG     1      66.445  45.027  48.286  1.00  0.00     0.116 C 
BRANCH   8   9
ATOM      9  NE  ARG     1      65.057  44.919  48.786  1.00  0.00    -0.212 N 
ATOM     10  CZ  ARG     1      64.278  45.918  49.218  1.00  0.00     0.666 C 
ATOM     11  NH2 ARG     1      63.100  45.656  49.770  1.00  0.00    -0.235 N 
ATOM     12  NH1 ARG     1      64.667  47.187  49.186  1.00  0.00    -0.235 N 
ATOM     13 1HH2 ARG     1      62.530  46.410  50.091  1.00 99.99     0.174 HD
ATOM     14 2HH2 ARG     1      62.776  44.717  49.857  1.00 99.99     0.174 HD
ATOM     15 1HH1 ARG     1      64.062  47.908  49.519  1.00 99.99     0.174 HD
ATOM     16 2HH1 ARG     1      65.569  47.407  48.824  1.00 99.99     0.174 HD
ATOM     17  HE  ARG     1      64.675  43.997  48.780  1.00 99.99     0.178 HD
ENDBRANCH   8   9
ENDBRANCH   7   8
ENDBRANCH   6   7
ENDBRANCH   5   6
BRANCH   5  18
ATOM     18  C   ARG     1      65.895  41.421  48.647  1.00  0.00     0.259 C 
ATOM     19  O   ARG     1      64.738  41.841  48.606  1.00  0.00    -0.271 OA
ATOM     20  N   ARG     2      66.232  40.341  49.353  1.00  0.00    -0.338 N 
ATOM     21  H   ARG     2      67.102  39.862  49.248  1.00 99.99     0.164 HD
BRANCH  20  22
ATOM     22  CA  ARG     2      65.315  39.738  50.346  1.00  0.00     0.159 C 
BRANCH  22  23
ATOM     23  C   ARG     2      66.095  39.390  51.623  1.00  0.00     0.251 C 
ATOM     24  N   TRP     3      65.485  39.722  52.758  1.00  0.00    -0.337 N 
ATOM     25  H   TRP     3      64.627  40.232  52.759  1.00 99.99     0.164 HD
ATOM     26  O   ARG     2      67.277  39.058  51.558  1.00  0.00    -0.271 OA
BRANCH  24  27
ATOM     27  CA  TRP     3      66.016  39.385  54.098  1.00  0.00     0.164 C 
BRANCH  27  28
ATOM     28  C   TRP     3      64.879  38.949  55.041  1.00  0.00     0.251 C 
ATOM     29  N   VAL     4      63.926  39.855  55.264  1.00  0.00    -0.338 N 
ATOM     30  H   VAL     4      63.879  40.688  54.715  1.00 99.99     0.164 HD
ATOM     31  O   TRP     3      64.743  37.766  55.349  1.00  0.00    -0.271 OA
BRANCH  29  32
ATOM     32  CA  VAL     4      62.884  39.756  56.322  1.00  0.00     0.159 C 
BRANCH  32  33
ATOM     33  CB  VAL     4      62.721  41.108  57.055  1.00  0.00     0.029 C 
ATOM     34  CG2 VAL     4      63.916  42.035  56.799  1.00  0.00     0.002 C 
ATOM     35  CG1 VAL     4      62.579  40.940  58.574  1.00  0.00     0.002 C 
ENDBRANCH  32  33
BRANCH  32  36
ATOM     36  C   VAL     4      61.542  39.138  55.856  1.00  0.00     0.251 C 
ATOM     37  N   ILE     5      60.459  39.915  55.866  1.00  0.00    -0.338 N 
ATOM     38  H   ILE     5      60.481  40.865  56.172  1.00 99.99     0.164 HD
ATOM     39  O   VAL     4      61.527  37.991  55.410  1.00  0.00    -0.271 OA
BRANCH  37  40
ATOM     40  CA  ILE     5      59.106  39.432  55.491  1.00  0.00     0.159 C 
BRANCH  40  41
ATOM     41  CB  ILE     5      58.046  39.904  56.505  1.00  0.00     0.029 C 
ATOM     42  CG2 ILE     5      56.776  39.053  56.341  1.00  0.00     0.002 C 
BRANCH  41  43
ATOM     43  CG1 ILE     5      58.593  39.933  57.945  1.00  0.00     0.002 C 
ATOM     44  CD  ILE     5      57.982  41.019  58.837  1.00  0.00     0.000 C 
ENDBRANCH  41  43
ENDBRANCH  40  41
BRANCH  40  45
ATOM     45  C   ILE     5      58.667  39.697  54.032  1.00  0.00     0.251 C 
ATOM     46  O   ILE     5      58.670  38.803  53.189  1.00  0.00    -0.271 OA
ATOM     47  N   TRP     6      58.235  40.932  53.793  1.00  0.00    -0.337 N 
ATOM     48  H   TRP     6      57.952  41.536  54.536  1.00 99.99     0.164 HD
BRANCH  47  49
ATOM     49  CA  TRP     6      57.995  41.512  52.458  1.00  0.00     0.164 C 
BRANCH  49  50
ATOM     50  CB  TRP     6      56.938  42.620  52.561  1.00  0.00     0.059 C 
BRANCH  50  51
ATOM     51  CG  TRP     6      55.878  42.543  51.461  1.00  0.00    -0.016 A 
ATOM     52  CD2 TRP     6      55.194  41.410  51.051  1.00  0.00    -0.001 A 
ATOM     53  CE3 TRP     6      55.287  40.075  51.408  1.00  0.00     0.014 A 
ATOM     54  CE2 TRP     6      54.281  41.827  50.095  1.00  0.00     0.042 A 
ATOM     55  CZ3 TRP     6      54.452  39.141  50.808  1.00  0.00     0.001 A 
ATOM     56  CH2 TRP     6      53.522  39.553  49.861  1.00  0.00     0.002 A 
ATOM     57  CZ2 TRP     6      53.438  40.894  49.501  1.00  0.00     0.030 A 
ATOM     58  NE1 TRP     6      54.441  43.141  49.941  1.00  0.00    -0.365 N 
ATOM     59  CD1 TRP     6      55.401  43.568  50.763  1.00  0.00     0.097 A 
ATOM     60  HE1 TRP     6      53.942  43.719  49.295  1.00 99.99     0.165 HD
ENDBRANCH  50  51
ENDBRANCH  49  50
BRANCH  49  61
ATOM     61  C   TRP     6      59.285  42.101  51.853  1.00  0.00     0.251 C 
ATOM     62  N   ARG     7      59.625  41.674  50.637  1.00  0.00    -0.338 N 
ATOM     63  H   ARG     7      59.128  40.923  50.203  1.00 99.99     0.164 HD
ATOM     64  O   TRP     6      60.006  42.827  52.531  1.00  0.00    -0.271 OA
BRANCH  62  65
ATOM     65  CA  ARG     7      60.785  42.150  49.850  1.00  0.00     0.159 C 
BRANCH  65  66
ATOM     66  CB  ARG     7      61.526  40.941  49.270  1.00  0.00     0.034 C 
BRANCH  66  67
ATOM     67  CG  ARG     7      60.531  39.926  48.691  1.00  0.00     0.027 C 
BRANCH  67  68
ATOM     68  CD  ARG     7      60.619  38.548  49.355  1.00  0.00     0.116 C 
BRANCH  68  69
ATOM     69  NE  ARG     7      61.276  38.586  50.681  1.00  0.00    -0.212 N 
ATOM     70  CZ  ARG     7      61.508  37.585  51.541  1.00  0.00     0.666 C 
ATOM     71  NH2 ARG     7      62.277  37.806  52.599  1.00  0.00    -0.235 N 
ATOM     72  NH1 ARG     7      61.104  36.338  51.339  1.00  0.00    -0.235 N 
ATOM     73 2HH2 ARG     7      62.695  38.700  52.739  1.00 99.99     0.174 HD
ATOM     74 1HH2 ARG     7      62.456  37.058  53.235  1.00 99.99     0.174 HD
ATOM     75 1HH1 ARG     7      61.294  35.628  52.013  1.00 99.99     0.174 HD
ATOM     76 2HH1 ARG     7      60.542  36.128  50.541  1.00 99.99     0.174 HD
ATOM     77  HE  ARG     7      61.540  39.502  50.970  1.00 99.99     0.178 HD
ENDBRANCH  68  69
ENDBRANCH  67  68
ENDBRANCH  66  67
ENDBRANCH  65  66
BRANCH  65  78
ATOM     78  C   ARG     7      60.364  43.131  48.730  1.00  0.00     0.251 C 
ATOM     79  O   ARG     7      61.048  44.107  48.428  1.00  0.00    -0.271 OA
ATOM     80  N   ARG     8      59.267  42.805  48.052  1.00  0.00    -0.336 N 
ATOM     81  H   ARG     8      58.837  41.909  48.151  1.00 99.99     0.164 HD
BRANCH  80  82
ATOM     82  CA  ARG     8      58.549  43.735  47.156  1.00  0.00     0.168 C 
BRANCH  82  83
ATOM     83  CB  ARG     8      58.593  43.234  45.711  1.00  0.00     0.035 C 
BRANCH  83  84
ATOM     84  CG  ARG     8      59.770  42.320  45.383  1.00  0.00     0.027 C 
BRANCH  84  85
ATOM     85  CD  ARG     8      60.760  43.111  44.530  1.00  0.00     0.116 C 
BRANCH  85  86
ATOM     86  NE  ARG     8      60.069  43.627  43.339  1.00  0.00    -0.212 N 
ATOM     87  HE  ARG     8      59.545  44.462  43.490  1.00 99.99     0.178 HD
ATOM     88  CZ  ARG     8      60.048  43.063  42.129  1.00  0.00     0.666 C 
ATOM     89  NH1 ARG     8      60.669  41.919  41.871  1.00  0.00    -0.235 N 
ATOM     90  NH2 ARG     8      59.422  43.672  41.133  1.00  0.00    -0.235 N 
ATOM     91 2HH1 ARG     8      61.159  41.458  42.608  1.00 99.99     0.174 HD
ATOM     92 1HH1 ARG     8      60.635  41.518  40.957  1.00 99.99     0.174 HD
ATOM     93 2HH2 ARG     8      58.964  44.545  41.283  1.00 99.99     0.174 HD
ATOM     94 1HH2 ARG     8      59.408  43.247  40.230  1.00 99.99     0.174 HD
ENDBRANCH  85  86
ENDBRANCH  84  85
ENDBRANCH  83  84
ENDBRANCH  82  83
BRANCH  82  95
ATOM     95  C   ARG     8      57.072  43.730  47.574  1.00  0.00     0.206 C 
ATOM     96  O   ARG     8      56.578  44.782  48.033  1.00 99.99    -0.646 OA
ATOM     97  OXT ARG     8      56.516  42.609  47.511  1.00 99.99    -0.646 OA
ENDBRANCH  82  95
ENDBRANCH  80  82
ENDBRANCH  65  78
ENDBRANCH  62  65
ENDBRANCH  49  61
ENDBRANCH  47  49
ENDBRANCH  40  45
ENDBRANCH  37  40
ENDBRANCH  32  36
ENDBRANCH  29  32
ENDBRANCH  27  28
BRANCH  27  98
ATOM     98  CB  TRP     3      66.756  40.589  54.696  1.00  0.00     0.059 C 
BRANCH  98  99
ATOM     99  CG  TRP     3      68.280  40.454  54.711  1.00  0.00    -0.016 A 
ATOM    100  CD2 TRP     3      69.187  41.503  54.685  1.00  0.00    -0.001 A 
ATOM    101  CE3 TRP     3      69.042  42.870  54.866  1.00  0.00     0.014 A 
ATOM    102  CE2 TRP     3      70.400  40.973  54.274  1.00  0.00     0.042 A 
ATOM    103  CZ3 TRP     3      70.110  43.719  54.613  1.00  0.00     0.001 A 
ATOM    104  CH2 TRP     3      71.323  43.196  54.181  1.00  0.00     0.002 A 
ATOM    105  CZ2 TRP     3      71.474  41.821  54.026  1.00  0.00     0.030 A 
ATOM    106  NE1 TRP     3      70.216  39.667  54.089  1.00  0.00    -0.365 N 
ATOM    107  HE1 TRP     3      70.902  39.027  53.740  1.00 99.99     0.165 HD
ATOM    108  CD1 TRP     3      68.949  39.357  54.364  1.00  0.00     0.097 A 
ENDBRANCH  98  99
ENDBRANCH  27  98
ENDBRANCH  24  27
ENDBRANCH  22  23
BRANCH  22 109
ATOM    109  CB  ARG     2      64.619  38.474  49.808  1.00  0.00     0.034 C 
BRANCH 109 110
ATOM    110  CG  ARG     2      65.355  37.755  48.667  1.00  0.00     0.027 C 
BRANCH 110 111
ATOM    111  CD  ARG     2      64.592  37.702  47.335  1.00  0.00     0.116 C 
BRANCH 111 112
ATOM    112  NE  ARG     2      63.833  38.938  47.047  1.00  0.00    -0.212 N 
ATOM    113  HE  ARG     2      63.127  39.172  47.720  1.00 99.99     0.178 HD
ATOM    114  CZ  ARG     2      63.996  39.802  46.037  1.00  0.00     0.666 C 
ATOM    115  NH2 ARG     2      63.313  40.939  46.036  1.00  0.00    -0.235 N 
ATOM    116  NH1 ARG     2      64.897  39.624  45.082  1.00  0.00    -0.235 N 
ATOM    117 1HH2 ARG     2      63.424  41.598  45.293  1.00 99.99     0.174 HD
ATOM    118 2HH2 ARG     2      62.693  41.138  46.795  1.00 99.99     0.174 HD
ATOM    119 2HH1 ARG     2      65.471  38.810  45.109  1.00 99.99     0.174 HD
ATOM    120 1HH1 ARG     2      64.987  40.294  44.349  1.00 99.99     0.174 HD
ENDBRANCH 111 112
ENDBRANCH 110 111
ENDBRANCH 109 110
ENDBRANCH  22 109
ENDBRANCH  20  22
ENDBRANCH   5  18
ENDBRANCH   1   5
TORSDOF 39
ENDMDL
MODEL 7
REMARK VINA RESULT:      -5.1      2.299     11.354
REMARK WARNING: 32 MAX_TORS EXCEEDED!!!
REMARK  39 active torsions:
REMARK  status: ('A' for Active; 'I' for Inactive)
REMARK    1  A    between atoms: N_1  and  CA_2 
REMARK    2  A    between atoms: CA_2  and  CB_5 
REMARK    3  A    between atoms: CA_2  and  C_3 
REMARK       I    between atoms: C_3  and  N_20 
REMARK    4  A    between atoms: CB_5  and  CG_6 
REMARK    5  A    between atoms: CG_6  and  CD_7 
REMARK    6  A    between atoms: CD_7  and  NE_8 
REMARK       I    between atoms: NE_8  and  CZ_9 
REMARK       I    between atoms: CZ_9  and  NH2_11 
REMARK       I    between atoms: CZ_9  and  NH1_10 
REMARK    7  A    between atoms: N_20  and  CA_21 
REMARK    8  A    between atoms: CA_21  and  C_22 
REMARK    9  A    between atoms: CA_21  and  CB_24 
REMARK       I    between atoms: C_22  and  N_37 
REMARK   10  A    between atoms: CB_24  and  CG_25 
REMARK   11  A    between atoms: CG_25  and  CD_26 
REMARK   12  A    between atoms: CD_26  and  NE_27 
REMARK       I    between atoms: NE_27  and  CZ_28 
REMARK       I    between atoms: CZ_28  and  NH2_30 
REMARK       I    between atoms: CZ_28  and  NH1_29 
REMARK   13  A    between atoms: N_37  and  CA_38 
REMARK   14  A    between atoms: CA_38  and  C_39 
REMARK   15  A    between atoms: CA_38  and  CB_41 
REMARK       I    between atoms: C_39  and  N_53 
REMARK   16  A    between atoms: CB_41  and  CG_42 
REMARK   17  A    between atoms: N_53  and  CA_54 
REMARK   18  A    between atoms: CA_54  and  CB_57 
REMARK   19  A    between atoms: CA_54  and  C_55 
REMARK       I    between atoms: C_55  and  N_61 
REMARK   20  A    between atoms: N_61  and  CA_62 
REMARK   21  A    between atoms: CA_62  and  CB_65 
REMARK   22  A    between atoms: CA_62  and  C_63 
REMARK       I    between atoms: C_63  and  N_70 
REMARK   23  A    between atoms: CB_65  and  CG1_66 
REMARK   24  A    between atoms: N_70  and  CA_71 
REMARK   25  A    between atoms: CA_71  and  CB_74 
REMARK   26  A    between atoms: CA_71  and  C_72 
REMARK       I    between atoms: C_72  and  N_86 
REMARK   27  A    between atoms: CB_74  and  CG_75 
REMARK   28  A    between atoms: N_86  and  CA_87 
REMARK   29  A    between atoms: CA_87  and  CB_90 
REMARK   30  A    between atoms: CA_87  and  C_88 
REMARK       I    between atoms: C_88  and  N_103 
REMARK   31  A    between atoms: CB_90  and  CG_91 
REMARK   32  A    between atoms: CG_91  and  CD_92 
REMARK   33  A    between atoms: CD_92  and  NE_93 
REMARK       I    between atoms: NE_93  and  CZ_94 
REMARK       I    between atoms: CZ_94  and  NH2_96 
REMARK       I    between atoms: CZ_94  and  NH1_95 
REMARK   34  A    between atoms: N_103  and  CA_104 
REMARK   35  A    between atoms: CA_104  and  CB_107 
REMARK   36  A    between atoms: CA_104  and  C_105 
REMARK   37  A    between atoms: CB_107  and  CG_108 
REMARK   38  A    between atoms: CG_108  and  CD_109 
REMARK   39  A    between atoms: CD_109  and  NE_110 
REMARK       I    between atoms: NE_110  and  CZ_111 
REMARK       I    between atoms: CZ_111  and  NH1_112 
ROOT
ATOM      1  N   ARG     1      63.295  46.928  51.245  1.00  0.00    -0.058 N 
ATOM      2  H1  ARG     1      62.463  47.300  51.667  1.00 99.99     0.276 HD
ATOM      3  H2  ARG     1      63.745  46.351  51.909  1.00 99.99     0.276 HD
ATOM      4  H3  ARG     1      63.927  47.667  51.074  1.00 99.99     0.276 HD
ENDROOT
BRANCH   1   5
ATOM      5  CA  ARG     1      62.881  46.196  50.021  1.00  0.00     0.255 C 
BRANCH   5   6
ATOM      6  CB  ARG     1      64.026  46.285  48.990  1.00  0.00     0.042 C 
BRANCH   6   7
ATOM      7  CG  ARG     1      65.139  45.224  49.069  1.00  0.00     0.027 C 
BRANCH   7   8
ATOM      8  CD  ARG     1      65.633  44.735  47.704  1.00  0.00     0.116 C 
BRANCH   8   9
ATOM      9  NE  ARG     1      66.826  43.876  47.871  1.00  0.00    -0.212 N 
ATOM     10  CZ  ARG     1      66.975  42.614  47.446  1.00  0.00     0.666 C 
ATOM     11  NH2 ARG     1      68.050  41.916  47.788  1.00  0.00    -0.235 N 
ATOM     12  NH1 ARG     1      66.041  41.989  46.739  1.00  0.00    -0.235 N 
ATOM     13 1HH2 ARG     1      68.146  40.975  47.467  1.00 99.99     0.174 HD
ATOM     14 2HH2 ARG     1      68.763  42.324  48.354  1.00 99.99     0.174 HD
ATOM     15 1HH1 ARG     1      66.183  41.047  46.440  1.00 99.99     0.174 HD
ATOM     16 2HH1 ARG     1      65.200  42.473  46.512  1.00 99.99     0.174 HD
ATOM     17  HE  ARG     1      67.595  44.304  48.341  1.00 99.99     0.178 HD
ENDBRANCH   8   9
ENDBRANCH   7   8
ENDBRANCH   6   7
ENDBRANCH   5   6
BRANCH   5  18
ATOM     18  C   ARG     1      62.618  44.715  50.393  1.00  0.00     0.259 C 
ATOM     19  O   ARG     1      62.933  44.308  51.512  1.00  0.00    -0.271 OA
ATOM     20  N   ARG     2      61.948  43.955  49.526  1.00  0.00    -0.338 N 
ATOM     21  H   ARG     2      61.506  44.312  48.705  1.00 99.99     0.164 HD
BRANCH  20  22
ATOM     22  CA  ARG     2      61.779  42.499  49.729  1.00  0.00     0.159 C 
BRANCH  22  23
ATOM     23  C   ARG     2      62.674  41.733  48.742  1.00  0.00     0.251 C 
ATOM     24  N   TRP     3      62.063  40.758  48.074  1.00  0.00    -0.337 N 
ATOM     25  H   TRP     3      61.119  40.502  48.273  1.00 99.99     0.164 HD
ATOM     26  O   ARG     2      63.894  41.877  48.771  1.00  0.00    -0.271 OA
BRANCH  24  27
ATOM     27  CA  TRP     3      62.716  39.968  47.007  1.00  0.00     0.164 C 
BRANCH  27  28
ATOM     28  C   TRP     3      61.827  39.913  45.749  1.00  0.00     0.251 C 
ATOM     29  N   VAL     4      61.808  38.749  45.098  1.00  0.00    -0.338 N 
ATOM     30  H   VAL     4      62.209  37.932  45.509  1.00 99.99     0.164 HD
ATOM     31  O   TRP     3      61.008  40.803  45.526  1.00  0.00    -0.271 OA
BRANCH  29  32
ATOM     32  CA  VAL     4      61.238  38.540  43.741  1.00  0.00     0.159 C 
BRANCH  32  33
ATOM     33  CB  VAL     4      61.525  37.103  43.244  1.00  0.00     0.029 C 
ATOM     34  CG2 VAL     4      62.740  36.494  43.957  1.00  0.00     0.002 C 
ATOM     35  CG1 VAL     4      61.793  37.045  41.734  1.00  0.00     0.002 C 
ENDBRANCH  32  33
BRANCH  32  36
ATOM     36  C   VAL     4      59.756  38.964  43.585  1.00  0.00     0.251 C 
ATOM     37  N   ILE     5      58.895  38.586  44.529  1.00  0.00    -0.338 N 
ATOM     38  H   ILE     5      59.166  38.035  45.316  1.00 99.99     0.164 HD
ATOM     39  O   VAL     4      59.433  39.704  42.656  1.00  0.00    -0.271 OA
BRANCH  37  40
ATOM     40  CA  ILE     5      57.441  38.886  44.474  1.00  0.00     0.159 C 
BRANCH  40  41
ATOM     41  CB  ILE     5      56.624  37.816  45.224  1.00  0.00     0.029 C 
ATOM     42  CG2 ILE     5      56.736  38.067  46.738  1.00  0.00     0.002 C 
BRANCH  41  43
ATOM     43  CG1 ILE     5      55.173  37.731  44.715  1.00  0.00     0.002 C 
ATOM     44  CD  ILE     5      54.365  36.558  45.284  1.00  0.00     0.000 C 
ENDBRANCH  41  43
ENDBRANCH  40  41
BRANCH  40  45
ATOM     45  C   ILE     5      57.024  40.319  44.878  1.00  0.00     0.251 C 
ATOM     46  O   ILE     5      55.842  40.647  44.945  1.00  0.00    -0.271 OA
ATOM     47  N   TRP     6      58.032  41.124  45.203  1.00  0.00    -0.337 N 
ATOM     48  H   TRP     6      58.931  40.761  45.438  1.00 99.99     0.164 HD
BRANCH  47  49
ATOM     49  CA  TRP     6      57.935  42.586  45.383  1.00  0.00     0.164 C 
BRANCH  49  50
ATOM     50  CB  TRP     6      58.353  42.956  46.813  1.00  0.00     0.059 C 
BRANCH  50  51
ATOM     51  CG  TRP     6      57.165  43.262  47.726  1.00  0.00    -0.016 A 
ATOM     52  CD2 TRP     6      56.517  42.371  48.566  1.00  0.00    -0.001 A 
ATOM     53  CE3 TRP     6      56.660  41.010  48.782  1.00  0.00     0.014 A 
ATOM     54  CE2 TRP     6      55.563  43.103  49.255  1.00  0.00     0.042 A 
ATOM     55  CZ3 TRP     6      55.845  40.369  49.707  1.00  0.00     0.001 A 
ATOM     56  CH2 TRP     6      54.898  41.100  50.415  1.00  0.00     0.002 A 
ATOM     57  CZ2 TRP     6      54.753  42.465  50.188  1.00  0.00     0.030 A 
ATOM     58  NE1 TRP     6      55.640  44.360  48.820  1.00  0.00    -0.365 N 
ATOM     59  CD1 TRP     6      56.602  44.452  47.902  1.00  0.00     0.097 A 
ATOM     60  HE1 TRP     6      55.054  45.116  49.114  1.00 99.99     0.165 HD
ENDBRANCH  50  51
ENDBRANCH  49  50
BRANCH  49  61
ATOM     61  C   TRP     6      58.833  43.343  44.384  1.00  0.00     0.251 C 
ATOM     62  N   ARG     7      59.669  42.604  43.652  1.00  0.00    -0.338 N 
ATOM     63  H   ARG     7      59.783  41.629  43.838  1.00 99.99     0.164 HD
ATOM     64  O   TRP     6      58.843  44.569  44.374  1.00  0.00    -0.271 OA
BRANCH  62  65
ATOM     65  CA  ARG     7      60.571  43.117  42.597  1.00  0.00     0.159 C 
BRANCH  65  66
ATOM     66  CB  ARG     7      61.781  42.185  42.478  1.00  0.00     0.034 C 
BRANCH  66  67
ATOM     67  CG  ARG     7      62.972  42.742  43.268  1.00  0.00     0.027 C 
BRANCH  67  68
ATOM     68  CD  ARG     7      64.307  42.094  42.887  1.00  0.00     0.116 C 
BRANCH  68  69
ATOM     69  NE  ARG     7      64.685  40.979  43.784  1.00  0.00    -0.212 N 
ATOM     70  CZ  ARG     7      64.863  39.683  43.497  1.00  0.00     0.666 C 
ATOM     71  NH2 ARG     7      65.381  38.881  44.417  1.00  0.00    -0.235 N 
ATOM     72  NH1 ARG     7      64.656  39.165  42.293  1.00  0.00    -0.235 N 
ATOM     73 2HH2 ARG     7      65.656  39.244  45.303  1.00 99.99     0.174 HD
ATOM     74 1HH2 ARG     7      65.520  37.917  44.199  1.00 99.99     0.174 HD
ATOM     75 1HH1 ARG     7      64.793  38.191  42.130  1.00 99.99     0.174 HD
ATOM     76 2HH1 ARG     7      64.287  39.744  41.567  1.00 99.99     0.174 HD
ATOM     77  HE  ARG     7      64.779  41.249  44.739  1.00 99.99     0.178 HD
ENDBRANCH  68  69
ENDBRANCH  67  68
ENDBRANCH  66  67
ENDBRANCH  65  66
BRANCH  65  78
ATOM     78  C   ARG     7      59.849  43.263  41.236  1.00  0.00     0.251 C 
ATOM     79  O   ARG     7      59.518  44.359  40.789  1.00  0.00    -0.271 OA
ATOM     80  N   ARG     8      59.689  42.142  40.538  1.00  0.00    -0.336 N 
ATOM     81  H   ARG     8      60.147  41.293  40.799  1.00 99.99     0.164 HD
BRANCH  80  82
ATOM     82  CA  ARG     8      58.789  42.021  39.372  1.00  0.00     0.168 C 
BRANCH  82  83
ATOM     83  CB  ARG     8      59.529  42.373  38.080  1.00  0.00     0.035 C 
BRANCH  83  84
ATOM     84  CG  ARG     8      59.218  43.756  37.516  1.00  0.00     0.027 C 
BRANCH  84  85
ATOM     85  CD  ARG     8      58.481  43.572  36.191  1.00  0.00     0.116 C 
BRANCH  85  86
ATOM     86  NE  ARG     8      58.684  44.764  35.354  1.00  0.00    -0.212 N 
ATOM     87  HE  ARG     8      57.974  45.458  35.437  1.00 99.99     0.178 HD
ATOM     88  CZ  ARG     8      59.681  44.963  34.488  1.00  0.00     0.666 C 
ATOM     89  NH1 ARG     8      60.627  44.056  34.278  1.00  0.00    -0.235 N 
ATOM     90  NH2 ARG     8      59.763  46.113  33.838  1.00  0.00    -0.235 N 
ATOM     91 2HH1 ARG     8      60.587  43.192  34.774  1.00 99.99     0.174 HD
ATOM     92 1HH1 ARG     8      61.360  44.230  33.623  1.00 99.99     0.174 HD
ATOM     93 2HH2 ARG     8      59.084  46.828  33.987  1.00 99.99     0.174 HD
ATOM     94 1HH2 ARG     8      60.510  46.259  33.191  1.00 99.99     0.174 HD
ENDBRANCH  85  86
ENDBRANCH  84  85
ENDBRANCH  83  84
ENDBRANCH  82  83
BRANCH  82  95
ATOM     95  C   ARG     8      58.382  40.546  39.255  1.00  0.00     0.206 C 
ATOM     96  O   ARG     8      58.923  39.847  38.372  1.00 99.99    -0.646 OA
ATOM     97  OXT ARG     8      57.444  40.202  40.009  1.00 99.99    -0.646 OA
ENDBRANCH  82  95
ENDBRANCH  80  82
ENDBRANCH  65  78
ENDBRANCH  62  65
ENDBRANCH  49  61
ENDBRANCH  47  49
ENDBRANCH  40  45
ENDBRANCH  37  40
ENDBRANCH  32  36
ENDBRANCH  29  32
ENDBRANCH  27  28
BRANCH  27  98
ATOM     98  CB  TRP     3      63.009  38.545  47.500  1.00  0.00     0.059 C 
BRANCH  98  99
ATOM     99  CG  TRP     3      64.199  38.436  48.454  1.00  0.00    -0.016 A 
ATOM    100  CD2 TRP     3      64.143  38.542  49.837  1.00  0.00    -0.001 A 
ATOM    101  CE3 TRP     3      63.084  38.535  50.732  1.00  0.00     0.014 A 
ATOM    102  CE2 TRP     3      65.429  38.825  50.269  1.00  0.00     0.042 A 
ATOM    103  CZ3 TRP     3      63.308  38.834  52.069  1.00  0.00     0.001 A 
ATOM    104  CH2 TRP     3      64.592  39.138  52.506  1.00  0.00     0.002 A 
ATOM    105  CZ2 TRP     3      65.656  39.118  51.610  1.00  0.00     0.030 A 
ATOM    106  NE1 TRP     3      66.208  38.859  49.190  1.00  0.00    -0.365 N 
ATOM    107  HE1 TRP     3      67.180  39.094  49.182  1.00 99.99     0.165 HD
ATOM    108  CD1 TRP     3      65.471  38.614  48.106  1.00  0.00     0.097 A 
ENDBRANCH  98  99
ENDBRANCH  27  98
ENDBRANCH  24  27
ENDBRANCH  22  23
BRANCH  22 109
ATOM    109  CB  ARG     2      60.318  42.049  49.554  1.00  0.00     0.034 C 
BRANCH 109 110
ATOM    110  CG  ARG     2      59.591  41.662  50.851  1.00  0.00     0.027 C 
BRANCH 110 111
ATOM    111  CD  ARG     2      60.110  42.357  52.119  1.00  0.00     0.116 C 
BRANCH 111 112
ATOM    112  NE  ARG     2      60.534  41.409  53.173  1.00  0.00    -0.212 N 
ATOM    113  HE  ARG     2      61.496  41.133  53.136  1.00 99.99     0.178 HD
ATOM    114  CZ  ARG     2      59.815  40.914  54.188  1.00  0.00     0.666 C 
ATOM    115  NH2 ARG     2      60.419  40.193  55.123  1.00  0.00    -0.235 N 
ATOM    116  NH1 ARG     2      58.534  41.204  54.366  1.00  0.00    -0.235 N 
ATOM    117 1HH2 ARG     2      59.900  39.819  55.891  1.00 99.99     0.174 HD
ATOM    118 2HH2 ARG     2      61.405  40.039  55.060  1.00 99.99     0.174 HD
ATOM    119 2HH1 ARG     2      58.083  41.806  53.712  1.00 99.99     0.174 HD
ATOM    120 1HH1 ARG     2      58.036  40.815  55.137  1.00 99.99     0.174 HD
ENDBRANCH 111 112
ENDBRANCH 110 111
ENDBRANCH 109 110
ENDBRANCH  22 109
ENDBRANCH  20  22
ENDBRANCH   5  18
ENDBRANCH   1   5
TORSDOF 39
ENDMDL
MODEL 8
REMARK VINA RESULT:      -5.1      2.468     10.246
REMARK WARNING: 32 MAX_TORS EXCEEDED!!!
REMARK  39 active torsions:
REMARK  status: ('A' for Active; 'I' for Inactive)
REMARK    1  A    between atoms: N_1  and  CA_2 
REMARK    2  A    between atoms: CA_2  and  CB_5 
REMARK    3  A    between atoms: CA_2  and  C_3 
REMARK       I    between atoms: C_3  and  N_20 
REMARK    4  A    between atoms: CB_5  and  CG_6 
REMARK    5  A    between atoms: CG_6  and  CD_7 
REMARK    6  A    between atoms: CD_7  and  NE_8 
REMARK       I    between atoms: NE_8  and  CZ_9 
REMARK       I    between atoms: CZ_9  and  NH2_11 
REMARK       I    between atoms: CZ_9  and  NH1_10 
REMARK    7  A    between atoms: N_20  and  CA_21 
REMARK    8  A    between atoms: CA_21  and  C_22 
REMARK    9  A    between atoms: CA_21  and  CB_24 
REMARK       I    between atoms: C_22  and  N_37 
REMARK   10  A    between atoms: CB_24  and  CG_25 
REMARK   11  A    between atoms: CG_25  and  CD_26 
REMARK   12  A    between atoms: CD_26  and  NE_27 
REMARK       I    between atoms: NE_27  and  CZ_28 
REMARK       I    between atoms: CZ_28  and  NH2_30 
REMARK       I    between atoms: CZ_28  and  NH1_29 
REMARK   13  A    between atoms: N_37  and  CA_38 
REMARK   14  A    between atoms: CA_38  and  C_39 
REMARK   15  A    between atoms: CA_38  and  CB_41 
REMARK       I    between atoms: C_39  and  N_53 
REMARK   16  A    between atoms: CB_41  and  CG_42 
REMARK   17  A    between atoms: N_53  and  CA_54 
REMARK   18  A    between atoms: CA_54  and  CB_57 
REMARK   19  A    between atoms: CA_54  and  C_55 
REMARK       I    between atoms: C_55  and  N_61 
REMARK   20  A    between atoms: N_61  and  CA_62 
REMARK   21  A    between atoms: CA_62  and  CB_65 
REMARK   22  A    between atoms: CA_62  and  C_63 
REMARK       I    between atoms: C_63  and  N_70 
REMARK   23  A    between atoms: CB_65  and  CG1_66 
REMARK   24  A    between atoms: N_70  and  CA_71 
REMARK   25  A    between atoms: CA_71  and  CB_74 
REMARK   26  A    between atoms: CA_71  and  C_72 
REMARK       I    between atoms: C_72  and  N_86 
REMARK   27  A    between atoms: CB_74  and  CG_75 
REMARK   28  A    between atoms: N_86  and  CA_87 
REMARK   29  A    between atoms: CA_87  and  CB_90 
REMARK   30  A    between atoms: CA_87  and  C_88 
REMARK       I    between atoms: C_88  and  N_103 
REMARK   31  A    between atoms: CB_90  and  CG_91 
REMARK   32  A    between atoms: CG_91  and  CD_92 
REMARK   33  A    between atoms: CD_92  and  NE_93 
REMARK       I    between atoms: NE_93  and  CZ_94 
REMARK       I    between atoms: CZ_94  and  NH2_96 
REMARK       I    between atoms: CZ_94  and  NH1_95 
REMARK   34  A    between atoms: N_103  and  CA_104 
REMARK   35  A    between atoms: CA_104  and  CB_107 
REMARK   36  A    between atoms: CA_104  and  C_105 
REMARK   37  A    between atoms: CB_107  and  CG_108 
REMARK   38  A    between atoms: CG_108  and  CD_109 
REMARK   39  A    between atoms: CD_109  and  NE_110 
REMARK       I    between atoms: NE_110  and  CZ_111 
REMARK       I    between atoms: CZ_111  and  NH1_112 
ROOT
ATOM      1  N   ARG     1      63.810  47.164  49.480  1.00  0.00    -0.058 N 
ATOM      2  H1  ARG     1      63.216  47.101  50.287  1.00 99.99     0.276 HD
ATOM      3  H2  ARG     1      64.684  47.525  49.769  1.00 99.99     0.276 HD
ATOM      4  H3  ARG     1      63.443  47.840  48.862  1.00 99.99     0.276 HD
ENDROOT
BRANCH   1   5
ATOM      5  CA  ARG     1      63.906  45.802  48.893  1.00  0.00     0.255 C 
BRANCH   5   6
ATOM      6  CB  ARG     1      65.333  45.268  49.138  1.00  0.00     0.042 C 
BRANCH   6   7
ATOM      7  CG  ARG     1      66.468  45.845  48.272  1.00  0.00     0.027 C 
BRANCH   7   8
ATOM      8  CD  ARG     1      66.940  44.908  47.156  1.00  0.00     0.116 C 
BRANCH   8   9
ATOM      9  NE  ARG     1      65.795  44.149  46.607  1.00  0.00    -0.212 N 
ATOM     10  CZ  ARG     1      65.830  43.232  45.632  1.00  0.00     0.666 C 
ATOM     11  NH2 ARG     1      64.703  42.731  45.144  1.00  0.00    -0.235 N 
ATOM     12  NH1 ARG     1      66.966  42.842  45.067  1.00  0.00    -0.235 N 
ATOM     13 1HH2 ARG     1      64.744  42.050  44.415  1.00 99.99     0.174 HD
ATOM     14 2HH2 ARG     1      63.819  43.021  45.504  1.00 99.99     0.174 HD
ATOM     15 1HH1 ARG     1      66.958  42.158  44.340  1.00 99.99     0.174 HD
ATOM     16 2HH1 ARG     1      67.825  43.241  45.378  1.00 99.99     0.174 HD
ATOM     17  HE  ARG     1      64.913  44.347  47.030  1.00 99.99     0.178 HD
ENDBRANCH   8   9
ENDBRANCH   7   8
ENDBRANCH   6   7
ENDBRANCH   5   6
BRANCH   5  18
ATOM     18  C   ARG     1      62.870  44.887  49.593  1.00  0.00     0.259 C 
ATOM     19  O   ARG     1      62.425  45.209  50.694  1.00  0.00    -0.271 OA
ATOM     20  N   ARG     2      62.404  43.833  48.920  1.00  0.00    -0.338 N 
ATOM     21  H   ARG     2      62.595  43.665  47.955  1.00 99.99     0.164 HD
BRANCH  20  22
ATOM     22  CA  ARG     2      61.527  42.825  49.557  1.00  0.00     0.159 C 
BRANCH  22  23
ATOM     23  C   ARG     2      62.379  41.661  50.085  1.00  0.00     0.251 C 
ATOM     24  N   TRP     3      62.144  41.326  51.351  1.00  0.00    -0.337 N 
ATOM     25  H   TRP     3      61.521  41.855  51.924  1.00 99.99     0.164 HD
ATOM     26  O   ARG     2      63.349  41.260  49.444  1.00  0.00    -0.271 OA
BRANCH  24  27
ATOM     27  CA  TRP     3      62.783  40.170  52.020  1.00  0.00     0.164 C 
BRANCH  27  28
ATOM     28  C   TRP     3      62.105  38.853  51.597  1.00  0.00     0.251 C 
ATOM     29  N   VAL     4      60.794  38.769  51.831  1.00  0.00    -0.338 N 
ATOM     30  H   VAL     4      60.275  39.578  52.103  1.00 99.99     0.164 HD
ATOM     31  O   TRP     3      62.692  38.056  50.868  1.00  0.00    -0.271 OA
BRANCH  29  32
ATOM     32  CA  VAL     4      59.990  37.521  51.747  1.00  0.00     0.159 C 
BRANCH  32  33
ATOM     33  CB  VAL     4      59.142  37.331  53.027  1.00  0.00     0.029 C 
ATOM     34  CG2 VAL     4      59.577  38.295  54.138  1.00  0.00     0.002 C 
ATOM     35  CG1 VAL     4      59.233  35.904  53.586  1.00  0.00     0.002 C 
ENDBRANCH  32  33
BRANCH  32  36
ATOM     36  C   VAL     4      59.180  37.357  50.437  1.00  0.00     0.251 C 
ATOM     37  N   ILE     5      57.918  37.787  50.424  1.00  0.00    -0.338 N 
ATOM     38  H   ILE     5      57.480  38.194  51.223  1.00 99.99     0.164 HD
ATOM     39  O   VAL     4      59.739  36.924  49.430  1.00  0.00    -0.271 OA
BRANCH  37  40
ATOM     40  CA  ILE     5      57.020  37.645  49.249  1.00  0.00     0.159 C 
BRANCH  40  41
ATOM     41  CB  ILE     5      55.599  37.238  49.683  1.00  0.00     0.029 C 
ATOM     42  CG2 ILE     5      55.366  35.761  49.327  1.00  0.00     0.002 C 
BRANCH  41  43
ATOM     43  CG1 ILE     5      55.326  37.571  51.162  1.00  0.00     0.002 C 
ATOM     44  CD  ILE     5      54.771  38.978  51.408  1.00  0.00     0.000 C 
ENDBRANCH  41  43
ENDBRANCH  40  41
BRANCH  40  45
ATOM     45  C   ILE     5      57.004  38.830  48.256  1.00  0.00     0.251 C 
ATOM     46  O   ILE     5      58.022  39.187  47.668  1.00  0.00    -0.271 OA
ATOM     47  N   TRP     6      55.807  39.371  48.050  1.00  0.00    -0.337 N 
ATOM     48  H   TRP     6      54.969  38.883  48.287  1.00 99.99     0.164 HD
BRANCH  47  49
ATOM     49  CA  TRP     6      55.552  40.648  47.355  1.00  0.00     0.164 C 
BRANCH  49  50
ATOM     50  CB  TRP     6      56.574  41.696  47.814  1.00  0.00     0.059 C 
BRANCH  50  51
ATOM     51  CG  TRP     6      56.235  42.310  49.174  1.00  0.00    -0.016 A 
ATOM     52  CD2 TRP     6      56.905  42.097  50.367  1.00  0.00    -0.001 A 
ATOM     53  CE3 TRP     6      57.961  41.271  50.717  1.00  0.00     0.014 A 
ATOM     54  CE2 TRP     6      56.302  42.916  51.309  1.00  0.00     0.042 A 
ATOM     55  CZ3 TRP     6      58.430  41.268  52.025  1.00  0.00     0.001 A 
ATOM     56  CH2 TRP     6      57.841  42.099  52.971  1.00  0.00     0.002 A 
ATOM     57  CZ2 TRP     6      56.776  42.920  52.616  1.00  0.00     0.030 A 
ATOM     58  NE1 TRP     6      55.312  43.561  50.694  1.00  0.00    -0.365 N 
ATOM     59  CD1 TRP     6      55.273  43.195  49.413  1.00  0.00     0.097 A 
ATOM     60  HE1 TRP     6      54.676  44.203  51.126  1.00 99.99     0.165 HD
ENDBRANCH  50  51
ENDBRANCH  49  50
BRANCH  49  61
ATOM     61  C   TRP     6      55.646  40.489  45.824  1.00  0.00     0.251 C 
ATOM     62  N   ARG     7      56.859  40.618  45.282  1.00  0.00    -0.338 N 
ATOM     63  H   ARG     7      57.634  40.920  45.836  1.00 99.99     0.164 HD
ATOM     64  O   TRP     6      54.625  40.376  45.154  1.00  0.00    -0.271 OA
BRANCH  62  65
ATOM     65  CA  ARG     7      57.183  40.446  43.849  1.00  0.00     0.159 C 
BRANCH  65  66
ATOM     66  CB  ARG     7      57.791  41.747  43.314  1.00  0.00     0.034 C 
BRANCH  66  67
ATOM     67  CG  ARG     7      58.243  42.647  44.472  1.00  0.00     0.027 C 
BRANCH  67  68
ATOM     68  CD  ARG     7      59.084  43.843  44.015  1.00  0.00     0.116 C 
BRANCH  68  69
ATOM     69  NE  ARG     7      60.517  43.512  43.847  1.00  0.00    -0.212 N 
ATOM     70  CZ  ARG     7      61.168  43.096  42.753  1.00  0.00     0.666 C 
ATOM     71  NH2 ARG     7      62.492  43.031  42.774  1.00  0.00    -0.235 N 
ATOM     72  NH1 ARG     7      60.570  42.848  41.595  1.00  0.00    -0.235 N 
ATOM     73 2HH2 ARG     7      62.997  43.311  43.586  1.00 99.99     0.174 HD
ATOM     74 1HH2 ARG     7      62.978  42.728  41.956  1.00 99.99     0.174 HD
ATOM     75 1HH1 ARG     7      61.097  42.531  40.810  1.00 99.99     0.174 HD
ATOM     76 2HH1 ARG     7      59.575  42.908  41.535  1.00 99.99     0.174 HD
ATOM     77  HE  ARG     7      61.044  43.581  44.690  1.00 99.99     0.178 HD
ENDBRANCH  68  69
ENDBRANCH  67  68
ENDBRANCH  66  67
ENDBRANCH  65  66
BRANCH  65  78
ATOM     78  C   ARG     7      58.136  39.251  43.609  1.00  0.00     0.251 C 
ATOM     79  O   ARG     7      58.217  38.314  44.400  1.00  0.00    -0.271 OA
ATOM     80  N   ARG     8      58.793  39.252  42.451  1.00  0.00    -0.336 N 
ATOM     81  H   ARG     8      58.565  39.894  41.721  1.00 99.99     0.164 HD
BRANCH  80  82
ATOM     82  CA  ARG     8      59.943  38.371  42.159  1.00  0.00     0.168 C 
BRANCH  82  83
ATOM     83  CB  ARG     8      60.215  38.321  40.654  1.00  0.00     0.035 C 
BRANCH  83  84
ATOM     84  CG  ARG     8      59.270  39.163  39.801  1.00  0.00     0.027 C 
BRANCH  84  85
ATOM     85  CD  ARG     8      60.099  40.228  39.087  1.00  0.00     0.116 C 
BRANCH  85  86
ATOM     86  NE  ARG     8      59.222  41.340  38.693  1.00  0.00    -0.212 N 
ATOM     87  HE  ARG     8      58.254  41.193  38.875  1.00 99.99     0.178 HD
ATOM     88  CZ  ARG     8      59.599  42.470  38.089  1.00  0.00     0.666 C 
ATOM     89  NH1 ARG     8      60.862  42.709  37.758  1.00  0.00    -0.235 N 
ATOM     90  NH2 ARG     8      58.700  43.411  37.839  1.00  0.00    -0.235 N 
ATOM     91 2HH1 ARG     8      61.552  42.016  37.955  1.00 99.99     0.174 HD
ATOM     92 1HH1 ARG     8      61.116  43.562  37.305  1.00 99.99     0.174 HD
ATOM     93 2HH2 ARG     8      57.746  43.278  38.095  1.00 99.99     0.174 HD
ATOM     94 1HH2 ARG     8      58.985  44.254  37.388  1.00 99.99     0.174 HD
ENDBRANCH  85  86
ENDBRANCH  84  85
ENDBRANCH  83  84
ENDBRANCH  82  83
BRANCH  82  95
ATOM     95  C   ARG     8      61.183  39.003  42.806  1.00  0.00     0.206 C 
ATOM     96  O   ARG     8      61.680  40.019  42.274  1.00 99.99    -0.646 OA
ATOM     97  OXT ARG     8      61.652  38.360  43.772  1.00 99.99    -0.646 OA
ENDBRANCH  82  95
ENDBRANCH  80  82
ENDBRANCH  65  78
ENDBRANCH  62  65
ENDBRANCH  49  61
ENDBRANCH  47  49
ENDBRANCH  40  45
ENDBRANCH  37  40
ENDBRANCH  32  36
ENDBRANCH  29  32
ENDBRANCH  27  28
BRANCH  27  98
ATOM     98  CB  TRP     3      62.708  40.328  53.544  1.00  0.00     0.059 C 
BRANCH  98  99
ATOM     99  CG  TRP     3      64.056  40.233  54.260  1.00  0.00    -0.016 A 
ATOM    100  CD2 TRP     3      64.428  40.949  55.389  1.00  0.00    -0.001 A 
ATOM    101  CE3 TRP     3      63.705  41.716  56.289  1.00  0.00     0.014 A 
ATOM    102  CE2 TRP     3      65.812  40.911  55.448  1.00  0.00     0.042 A 
ATOM    103  CZ3 TRP     3      64.371  42.471  57.245  1.00  0.00     0.001 A 
ATOM    104  CH2 TRP     3      65.760  42.453  57.298  1.00  0.00     0.002 A 
ATOM    105  CZ2 TRP     3      66.481  41.661  56.410  1.00  0.00     0.030 A 
ATOM    106  NE1 TRP     3      66.231  40.186  54.413  1.00  0.00    -0.365 N 
ATOM    107  HE1 TRP     3      67.187  40.028  54.163  1.00 99.99     0.165 HD
ATOM    108  CD1 TRP     3      65.176  39.771  53.711  1.00  0.00     0.097 A 
ENDBRANCH  98  99
ENDBRANCH  27  98
ENDBRANCH  24  27
ENDBRANCH  22  23
BRANCH  22 109
ATOM    109  CB  ARG     2      60.460  42.283  48.589  1.00  0.00     0.034 C 
BRANCH 109 110
ATOM    110  CG  ARG     2      60.767  42.480  47.096  1.00  0.00     0.027 C 
BRANCH 110 111
ATOM    111  CD  ARG     2      61.611  41.367  46.456  1.00  0.00     0.116 C 
BRANCH 111 112
ATOM    112  NE  ARG     2      60.872  40.098  46.284  1.00  0.00    -0.212 N 
ATOM    113  HE  ARG     2      60.210  40.087  45.531  1.00 99.99     0.178 HD
ATOM    114  CZ  ARG     2      61.004  38.955  46.970  1.00  0.00     0.666 C 
ATOM    115  NH2 ARG     2      60.354  37.873  46.564  1.00  0.00    -0.235 N 
ATOM    116  NH1 ARG     2      61.847  38.823  47.983  1.00  0.00    -0.235 N 
ATOM    117 1HH2 ARG     2      60.443  37.011  47.061  1.00 99.99     0.174 HD
ATOM    118 2HH2 ARG     2      59.782  37.924  45.745  1.00 99.99     0.174 HD
ATOM    119 2HH1 ARG     2      62.399  39.608  48.254  1.00 99.99     0.174 HD
ATOM    120 1HH1 ARG     2      61.916  37.953  48.466  1.00 99.99     0.174 HD
ENDBRANCH 111 112
ENDBRANCH 110 111
ENDBRANCH 109 110
ENDBRANCH  22 109
ENDBRANCH  20  22
ENDBRANCH   5  18
ENDBRANCH   1   5
TORSDOF 39
ENDMDL
MODEL 9
REMARK VINA RESULT:      -5.1      3.092      9.059
REMARK WARNING: 32 MAX_TORS EXCEEDED!!!
REMARK  39 active torsions:
REMARK  status: ('A' for Active; 'I' for Inactive)
REMARK    1  A    between atoms: N_1  and  CA_2 
REMARK    2  A    between atoms: CA_2  and  CB_5 
REMARK    3  A    between atoms: CA_2  and  C_3 
REMARK       I    between atoms: C_3  and  N_20 
REMARK    4  A    between atoms: CB_5  and  CG_6 
REMARK    5  A    between atoms: CG_6  and  CD_7 
REMARK    6  A    between atoms: CD_7  and  NE_8 
REMARK       I    between atoms: NE_8  and  CZ_9 
REMARK       I    between atoms: CZ_9  and  NH2_11 
REMARK       I    between atoms: CZ_9  and  NH1_10 
REMARK    7  A    between atoms: N_20  and  CA_21 
REMARK    8  A    between atoms: CA_21  and  C_22 
REMARK    9  A    between atoms: CA_21  and  CB_24 
REMARK       I    between atoms: C_22  and  N_37 
REMARK   10  A    between atoms: CB_24  and  CG_25 
REMARK   11  A    between atoms: CG_25  and  CD_26 
REMARK   12  A    between atoms: CD_26  and  NE_27 
REMARK       I    between atoms: NE_27  and  CZ_28 
REMARK       I    between atoms: CZ_28  and  NH2_30 
REMARK       I    between atoms: CZ_28  and  NH1_29 
REMARK   13  A    between atoms: N_37  and  CA_38 
REMARK   14  A    between atoms: CA_38  and  C_39 
REMARK   15  A    between atoms: CA_38  and  CB_41 
REMARK       I    between atoms: C_39  and  N_53 
REMARK   16  A    between atoms: CB_41  and  CG_42 
REMARK   17  A    between atoms: N_53  and  CA_54 
REMARK   18  A    between atoms: CA_54  and  CB_57 
REMARK   19  A    between atoms: CA_54  and  C_55 
REMARK       I    between atoms: C_55  and  N_61 
REMARK   20  A    between atoms: N_61  and  CA_62 
REMARK   21  A    between atoms: CA_62  and  CB_65 
REMARK   22  A    between atoms: CA_62  and  C_63 
REMARK       I    between atoms: C_63  and  N_70 
REMARK   23  A    between atoms: CB_65  and  CG1_66 
REMARK   24  A    between atoms: N_70  and  CA_71 
REMARK   25  A    between atoms: CA_71  and  CB_74 
REMARK   26  A    between atoms: CA_71  and  C_72 
REMARK       I    between atoms: C_72  and  N_86 
REMARK   27  A    between atoms: CB_74  and  CG_75 
REMARK   28  A    between atoms: N_86  and  CA_87 
REMARK   29  A    between atoms: CA_87  and  CB_90 
REMARK   30  A    between atoms: CA_87  and  C_88 
REMARK       I    between atoms: C_88  and  N_103 
REMARK   31  A    between atoms: CB_90  and  CG_91 
REMARK   32  A    between atoms: CG_91  and  CD_92 
REMARK   33  A    between atoms: CD_92  and  NE_93 
REMARK       I    between atoms: NE_93  and  CZ_94 
REMARK       I    between atoms: CZ_94  and  NH2_96 
REMARK       I    between atoms: CZ_94  and  NH1_95 
REMARK   34  A    between atoms: N_103  and  CA_104 
REMARK   35  A    between atoms: CA_104  and  CB_107 
REMARK   36  A    between atoms: CA_104  and  C_105 
REMARK   37  A    between atoms: CB_107  and  CG_108 
REMARK   38  A    between atoms: CG_108  and  CD_109 
REMARK   39  A    between atoms: CD_109  and  NE_110 
REMARK       I    between atoms: NE_110  and  CZ_111 
REMARK       I    between atoms: CZ_111  and  NH1_112 
ROOT
ATOM      1  N   ARG     1      51.777  40.765  49.715  1.00  0.00    -0.058 N 
ATOM      2  H1  ARG     1      50.908  40.318  49.947  1.00 99.99     0.276 HD
ATOM      3  H2  ARG     1      51.724  41.709  50.004  1.00 99.99     0.276 HD
ATOM      4  H3  ARG     1      51.868  40.799  48.733  1.00 99.99     0.276 HD
ENDROOT
BRANCH   1   5
ATOM      5  CA  ARG     1      52.860  40.007  50.394  1.00  0.00     0.255 C 
BRANCH   5   6
ATOM      6  CB  ARG     1      52.811  38.545  49.903  1.00  0.00     0.042 C 
BRANCH   6   7
ATOM      7  CG  ARG     1      52.258  38.287  48.489  1.00  0.00     0.027 C 
BRANCH   7   8
ATOM      8  CD  ARG     1      53.307  37.790  47.489  1.00  0.00     0.116 C 
BRANCH   8   9
ATOM      9  NE  ARG     1      53.916  38.934  46.776  1.00  0.00    -0.212 N 
ATOM     10  CZ  ARG     1      55.219  39.230  46.695  1.00  0.00     0.666 C 
ATOM     11  NH2 ARG     1      55.613  40.368  46.138  1.00  0.00    -0.235 N 
ATOM     12  NH1 ARG     1      56.157  38.453  47.224  1.00  0.00    -0.235 N 
ATOM     13 1HH2 ARG     1      56.588  40.578  46.087  1.00 99.99     0.174 HD
ATOM     14 2HH2 ARG     1      54.947  41.008  45.762  1.00 99.99     0.174 HD
ATOM     15 1HH1 ARG     1      57.121  38.705  47.148  1.00 99.99     0.174 HD
ATOM     16 2HH1 ARG     1      55.886  37.618  47.695  1.00 99.99     0.174 HD
ATOM     17  HE  ARG     1      53.272  39.529  46.300  1.00 99.99     0.178 HD
ENDBRANCH   8   9
ENDBRANCH   7   8
ENDBRANCH   6   7
ENDBRANCH   5   6
BRANCH   5  18
ATOM     18  C   ARG     1      54.221  40.646  50.021  1.00  0.00     0.259 C 
ATOM     19  O   ARG     1      55.162  39.919  49.701  1.00  0.00    -0.271 OA
ATOM     20  N   ARG     2      54.295  41.976  49.943  1.00  0.00    -0.338 N 
ATOM     21  H   ARG     2      53.499  42.577  49.998  1.00 99.99     0.164 HD
BRANCH  20  22
ATOM     22  CA  ARG     2      55.581  42.677  49.738  1.00  0.00     0.159 C 
BRANCH  22  23
ATOM     23  C   ARG     2      56.258  42.919  51.096  1.00  0.00     0.251 C 
ATOM     24  N   TRP     3      57.344  42.182  51.318  1.00  0.00    -0.337 N 
ATOM     25  H   TRP     3      57.632  41.472  50.679  1.00 99.99     0.164 HD
ATOM     26  O   ARG     2      55.684  43.566  51.969  1.00  0.00    -0.271 OA
BRANCH  24  27
ATOM     27  CA  TRP     3      58.199  42.332  52.517  1.00  0.00     0.164 C 
BRANCH  27  28
ATOM     28  C   TRP     3      59.678  42.484  52.114  1.00  0.00     0.251 C 
ATOM     29  N   VAL     4      60.010  41.999  50.917  1.00  0.00    -0.338 N 
ATOM     30  H   VAL     4      59.303  41.718  50.270  1.00 99.99     0.164 HD
ATOM     31  O   TRP     3      60.424  43.227  52.750  1.00  0.00    -0.271 OA
BRANCH  29  32
ATOM     32  CA  VAL     4      61.403  41.803  50.431  1.00  0.00     0.159 C 
BRANCH  32  33
ATOM     33  CB  VAL     4      61.755  40.298  50.378  1.00  0.00     0.029 C 
ATOM     34  CG2 VAL     4      60.677  39.494  49.638  1.00  0.00     0.002 C 
ATOM     35  CG1 VAL     4      61.920  39.682  51.774  1.00  0.00     0.002 C 
ENDBRANCH  32  33
BRANCH  32  36
ATOM     36  C   VAL     4      61.751  42.567  49.129  1.00  0.00     0.251 C 
ATOM     37  N   ILE     5      62.985  42.439  48.640  1.00  0.00    -0.338 N 
ATOM     38  H   ILE     5      63.686  41.885  49.085  1.00 99.99     0.164 HD
ATOM     39  O   VAL     4      60.869  43.190  48.539  1.00  0.00    -0.271 OA
BRANCH  37  40
ATOM     40  CA  ILE     5      63.459  43.155  47.428  1.00  0.00     0.159 C 
BRANCH  40  41
ATOM     41  CB  ILE     5      64.807  43.855  47.689  1.00  0.00     0.029 C 
ATOM     42  CG2 ILE     5      65.668  42.967  48.604  1.00  0.00     0.002 C 
BRANCH  41  43
ATOM     43  CG1 ILE     5      65.511  44.264  46.381  1.00  0.00     0.002 C 
ATOM     44  CD  ILE     5      67.038  44.353  46.479  1.00  0.00     0.000 C 
ENDBRANCH  41  43
ENDBRANCH  40  41
BRANCH  40  45
ATOM     45  C   ILE     5      63.479  42.336  46.116  1.00  0.00     0.251 C 
ATOM     46  O   ILE     5      63.775  41.144  46.110  1.00  0.00    -0.271 OA
ATOM     47  N   TRP     6      63.092  43.005  45.033  1.00  0.00    -0.337 N 
ATOM     48  H   TRP     6      62.573  43.854  45.106  1.00 99.99     0.164 HD
BRANCH  47  49
ATOM     49  CA  TRP     6      63.251  42.544  43.641  1.00  0.00     0.164 C 
BRANCH  49  50
ATOM     50  CB  TRP     6      64.061  41.241  43.619  1.00  0.00     0.059 C 
BRANCH  50  51
ATOM     51  CG  TRP     6      65.488  41.430  43.104  1.00  0.00    -0.016 A 
ATOM     52  CD2 TRP     6      66.657  41.265  43.829  1.00  0.00    -0.001 A 
ATOM     53  CE3 TRP     6      66.904  40.980  45.162  1.00  0.00     0.014 A 
ATOM     54  CE2 TRP     6      67.702  41.459  42.939  1.00  0.00     0.042 A 
ATOM     55  CZ3 TRP     6      68.213  40.877  45.614  1.00  0.00     0.001 A 
ATOM     56  CH2 TRP     6      69.267  41.053  44.725  1.00  0.00     0.002 A 
ATOM     57  CZ2 TRP     6      69.013  41.348  43.389  1.00  0.00     0.030 A 
ATOM     58  NE1 TRP     6      67.165  41.744  41.754  1.00  0.00    -0.365 N 
ATOM     59  CD1 TRP     6      65.835  41.726  41.856  1.00  0.00     0.097 A 
ATOM     60  HE1 TRP     6      67.672  41.962  40.920  1.00 99.99     0.165 HD
ENDBRANCH  50  51
ENDBRANCH  49  50
BRANCH  49  61
ATOM     61  C   TRP     6      61.886  42.301  42.964  1.00  0.00     0.251 C 
ATOM     62  N   ARG     7      61.703  41.106  42.401  1.00  0.00    -0.338 N 
ATOM     63  H   ARG     7      62.460  40.457  42.323  1.00 99.99     0.164 HD
ATOM     64  O   TRP     6      61.081  43.220  42.857  1.00  0.00    -0.271 OA
BRANCH  62  65
ATOM     65  CA  ARG     7      60.455  40.643  41.753  1.00  0.00     0.159 C 
BRANCH  65  66
ATOM     66  CB  ARG     7      60.771  39.434  40.867  1.00  0.00     0.034 C 
BRANCH  66  67
ATOM     67  CG  ARG     7      62.225  38.985  41.064  1.00  0.00     0.027 C 
BRANCH  67  68
ATOM     68  CD  ARG     7      62.348  37.574  41.647  1.00  0.00     0.116 C 
BRANCH  68  69
ATOM     69  NE  ARG     7      63.525  37.413  42.529  1.00  0.00    -0.212 N 
ATOM     70  CZ  ARG     7      63.630  37.623  43.848  1.00  0.00     0.666 C 
ATOM     71  NH2 ARG     7      64.733  37.242  44.478  1.00  0.00    -0.235 N 
ATOM     72  NH1 ARG     7      62.640  38.092  44.596  1.00  0.00    -0.235 N 
ATOM     73 2HH2 ARG     7      65.464  36.784  43.980  1.00 99.99     0.174 HD
ATOM     74 1HH2 ARG     7      64.808  37.391  45.462  1.00 99.99     0.174 HD
ATOM     75 1HH1 ARG     7      62.770  38.239  45.574  1.00 99.99     0.174 HD
ATOM     76 2HH1 ARG     7      61.785  38.369  44.160  1.00 99.99     0.174 HD
ATOM     77  HE  ARG     7      64.354  37.147  42.046  1.00 99.99     0.178 HD
ENDBRANCH  68  69
ENDBRANCH  67  68
ENDBRANCH  66  67
ENDBRANCH  65  66
BRANCH  65  78
ATOM     78  C   ARG     7      59.357  40.298  42.788  1.00  0.00     0.251 C 
ATOM     79  O   ARG     7      58.253  40.837  42.770  1.00  0.00    -0.271 OA
ATOM     80  N   ARG     8      59.647  39.318  43.640  1.00  0.00    -0.336 N 
ATOM     81  H   ARG     8      60.451  38.738  43.518  1.00 99.99     0.164 HD
BRANCH  80  82
ATOM     82  CA  ARG     8      58.867  39.037  44.864  1.00  0.00     0.168 C 
BRANCH  82  83
ATOM     83  CB  ARG     8      59.087  37.595  45.324  1.00  0.00     0.035 C 
BRANCH  83  84
ATOM     84  CG  ARG     8      58.573  36.527  44.363  1.00  0.00     0.027 C 
BRANCH  84  85
ATOM     85  CD  ARG     8      57.080  36.766  44.145  1.00  0.00     0.116 C 
BRANCH  85  86
ATOM     86  NE  ARG     8      56.831  37.000  42.715  1.00  0.00    -0.212 N 
ATOM     87  HE  ARG     8      57.185  36.292  42.108  1.00 99.99     0.178 HD
ATOM     88  CZ  ARG     8      56.233  38.067  42.179  1.00  0.00     0.666 C 
ATOM     89  NH1 ARG     8      55.793  39.077  42.918  1.00  0.00    -0.235 N 
ATOM     90  NH2 ARG     8      56.031  38.116  40.871  1.00  0.00    -0.235 N 
ATOM     91 2HH1 ARG     8      55.923  39.045  43.907  1.00 99.99     0.174 HD
ATOM     92 1HH1 ARG     8      55.352  39.864  42.491  1.00 99.99     0.174 HD
ATOM     93 2HH2 ARG     8      56.326  37.366  40.285  1.00 99.99     0.174 HD
ATOM     94 1HH2 ARG     8      55.584  38.916  40.473  1.00 99.99     0.174 HD
ENDBRANCH  85  86
ENDBRANCH  84  85
ENDBRANCH  83  84
ENDBRANCH  82  83
BRANCH  82  95
ATOM     95  C   ARG     8      59.418  39.938  45.978  1.00  0.00     0.206 C 
ATOM     96  O   ARG     8      58.647  40.290  46.896  1.00 99.99    -0.646 OA
ATOM     97  OXT ARG     8      60.593  40.332  45.797  1.00 99.99    -0.646 OA
ENDBRANCH  82  95
ENDBRANCH  80  82
ENDBRANCH  65  78
ENDBRANCH  62  65
ENDBRANCH  49  61
ENDBRANCH  47  49
ENDBRANCH  40  45
ENDBRANCH  37  40
ENDBRANCH  32  36
ENDBRANCH  29  32
ENDBRANCH  27  28
BRANCH  27  98
ATOM     98  CB  TRP     3      58.034  41.123  53.445  1.00  0.00     0.059 C 
BRANCH  98  99
ATOM     99  CG  TRP     3      57.385  39.903  52.790  1.00  0.00    -0.016 A 
ATOM    100  CD2 TRP     3      56.091  39.453  53.014  1.00  0.00    -0.001 A 
ATOM    101  CE3 TRP     3      54.997  40.029  53.640  1.00  0.00     0.014 A 
ATOM    102  CE2 TRP     3      56.049  38.132  52.598  1.00  0.00     0.042 A 
ATOM    103  CZ3 TRP     3      53.856  39.274  53.874  1.00  0.00     0.001 A 
ATOM    104  CH2 TRP     3      53.815  37.942  53.477  1.00  0.00     0.002 A 
ATOM    105  CZ2 TRP     3      54.904  37.374  52.824  1.00  0.00     0.030 A 
ATOM    106  NE1 TRP     3      57.258  37.828  52.130  1.00  0.00    -0.365 N 
ATOM    107  HE1 TRP     3      57.547  36.926  51.808  1.00 99.99     0.165 HD
ATOM    108  CD1 TRP     3      58.052  38.894  52.235  1.00  0.00     0.097 A 
ENDBRANCH  98  99
ENDBRANCH  27  98
ENDBRANCH  24  27
ENDBRANCH  22  23
BRANCH  22 109
ATOM    109  CB  ARG     2      55.405  44.019  49.005  1.00  0.00     0.034 C 
BRANCH 109 110
ATOM    110  CG  ARG     2      56.584  44.438  48.112  1.00  0.00     0.027 C 
BRANCH 110 111
ATOM    111  CD  ARG     2      57.402  43.275  47.530  1.00  0.00     0.116 C 
BRANCH 111 112
ATOM    112  NE  ARG     2      57.485  43.299  46.054  1.00  0.00    -0.212 N 
ATOM    113  HE  ARG     2      56.604  43.268  45.576  1.00 99.99     0.178 HD
ATOM    114  CZ  ARG     2      58.573  43.403  45.280  1.00  0.00     0.666 C 
ATOM    115  NH2 ARG     2      58.429  43.562  43.971  1.00  0.00    -0.235 N 
ATOM    116  NH1 ARG     2      59.800  43.464  45.776  1.00  0.00    -0.235 N 
ATOM    117 1HH2 ARG     2      59.229  43.645  43.379  1.00 99.99     0.174 HD
ATOM    118 2HH2 ARG     2      57.509  43.613  43.583  1.00 99.99     0.174 HD
ATOM    119 2HH1 ARG     2      59.922  43.420  46.765  1.00 99.99     0.174 HD
ATOM    120 1HH1 ARG     2      60.584  43.543  45.164  1.00 99.99     0.174 HD
ENDBRANCH 111 112
ENDBRANCH 110 111
ENDBRANCH 109 110
ENDBRANCH  22 109
ENDBRANCH  20  22
ENDBRANCH   5  18
ENDBRANCH   1   5
TORSDOF 39
ENDMDL
