MODEL 1
REMARK VINA RESULT:      -4.5      0.000      0.000
REMARK WARNING: 32 MAX_TORS EXCEEDED!!!
REMARK  38 active torsions:
REMARK  status: ('A' for Active; 'I' for Inactive)
REMARK    1  A    between atoms: N_1  and  CA_2 
REMARK    2  A    between atoms: CA_2  and  CB_5 
REMARK    3  A    between atoms: CA_2  and  C_3 
REMARK       I    between atoms: C_3  and  N_16 
REMARK    4  A    between atoms: CB_5  and  CG_6 
REMARK    5  A    between atoms: CG_6  and  CD_7 
REMARK    6  A    between atoms: CD_7  and  CE_8 
REMARK    7  A    between atoms: CE_8  and  NZ_9 
REMARK    8  A    between atoms: N_16  and  CA_17 
REMARK    9  A    between atoms: CA_17  and  C_18 
REMARK   10  A    between atoms: CA_17  and  CB_20 
REMARK       I    between atoms: C_18  and  N_25 
REMARK   11  A    between atoms: CB_20  and  CG1_21 
REMARK   12  A    between atoms: N_25  and  CA_26 
REMARK   13  A    between atoms: CA_26  and  CB_29 
REMARK   14  A    between atoms: CA_26  and  C_27 
REMARK       I    between atoms: C_27  and  N_41 
REMARK   15  A    between atoms: CB_29  and  CG_30 
REMARK   16  A    between atoms: N_41  and  CA_42 
REMARK   17  A    between atoms: CA_42  and  C_43 
REMARK   18  A    between atoms: CA_42  and  CB_45 
REMARK       I    between atoms: C_43  and  N_49 
REMARK   19  A    between atoms: N_49  and  CA_50 
REMARK   20  A    between atoms: CA_50  and  CB_53 
REMARK   21  A    between atoms: CA_50  and  C_51 
REMARK       I    between atoms: C_51  and  N_58 
REMARK   22  A    between atoms: CB_53  and  CG1_54 
REMARK   23  A    between atoms: N_58  and  CA_59 
REMARK   24  A    between atoms: CA_59  and  C_60 
REMARK   25  A    between atoms: CA_59  and  CB_62 
REMARK       I    between atoms: C_60  and  N_75 
REMARK   26  A    between atoms: CB_62  and  CG_63 
REMARK   27  A    between atoms: CG_63  and  CD_64 
REMARK   28  A    between atoms: CD_64  and  NE_65 
REMARK       I    between atoms: NE_65  and  CZ_66 
REMARK       I    between atoms: CZ_66  and  NH1_67 
REMARK       I    between atoms: CZ_66  and  NH2_68 
REMARK   29  A    between atoms: N_75  and  CA_76 
REMARK   30  A    between atoms: CA_76  and  CB_79 
REMARK   31  A    between atoms: CA_76  and  C_77 
REMARK       I    between atoms: C_77  and  N_91 
REMARK   32  A    between atoms: CB_79  and  CG_80 
REMARK   33  A    between atoms: N_91  and  CA_92 
REMARK   34  A    between atoms: CA_92  and  C_93 
REMARK   35  A    between atoms: CA_92  and  CB_95 
REMARK   36  A    between atoms: CB_95  and  CG_96 
REMARK   37  A    between atoms: CG_96  and  CD_97 
REMARK   38  A    between atoms: CD_97  and  NE_98 
REMARK       I    between atoms: NE_98  and  CZ_99 
REMARK       I    between atoms: CZ_99  and  NH1_100 
ROOT
ATOM      1  N   LYS     1      63.286  41.230  51.271  1.00  0.00    -0.058 N 
ATOM      2  H1  LYS     1      63.299  41.273  52.273  1.00 99.99     0.276 HD
ATOM      3  H2  LYS     1      64.215  41.220  50.954  1.00 99.99     0.276 HD
ATOM      4  H3  LYS     1      62.890  42.060  50.917  1.00 99.99     0.276 HD
ENDROOT
BRANCH   1   5
ATOM      5  CA  LYS     1      62.542  40.009  50.891  1.00  0.00     0.255 C 
BRANCH   5   6
ATOM      6  CB  LYS     1      61.074  40.044  51.360  1.00  0.00     0.040 C 
BRANCH   6   7
ATOM      7  CG  LYS     1      60.809  39.655  52.821  1.00  0.00     0.004 C 
BRANCH   7   8
ATOM      8  CD  LYS     1      60.765  40.908  53.709  1.00  0.00     0.032 C 
BRANCH   8   9
ATOM      9  CE  LYS     1      61.892  40.931  54.749  1.00  0.00     0.206 C 
BRANCH   9  10
ATOM     10  NZ  LYS     1      61.448  40.423  56.061  1.00  0.00    -0.064 N 
ATOM     11  HZ1 LYS     1      62.050  39.681  56.355  1.00 99.99     0.275 HD
ATOM     12  HZ2 LYS     1      61.480  41.157  56.739  1.00 99.99     0.275 HD
ATOM     13  HZ3 LYS     1      60.512  40.077  55.993  1.00 99.99     0.275 HD
ENDBRANCH   9  10
ENDBRANCH   8   9
ENDBRANCH   7   8
ENDBRANCH   6   7
ENDBRANCH   5   6
BRANCH   5  14
ATOM     14  C   LYS     1      62.533  39.917  49.348  1.00  0.00     0.259 C 
ATOM     15  O   LYS     1      63.184  40.722  48.681  1.00  0.00    -0.271 OA
ATOM     16  N   ILE     2      61.916  38.872  48.804  1.00  0.00    -0.338 N 
ATOM     17  H   ILE     2      61.453  38.166  49.340  1.00 99.99     0.164 HD
BRANCH  16  18
ATOM     18  CA  ILE     2      61.800  38.690  47.344  1.00  0.00     0.159 C 
BRANCH  18  19
ATOM     19  C   ILE     2      60.311  38.707  46.952  1.00  0.00     0.251 C 
ATOM     20  N   TRP     3      59.540  37.813  47.558  1.00  0.00    -0.337 N 
ATOM     21  H   TRP     3      59.906  37.072  48.120  1.00 99.99     0.164 HD
ATOM     22  O   ILE     2      59.920  39.439  46.044  1.00  0.00    -0.271 OA
BRANCH  20  23
ATOM     23  CA  TRP     3      58.072  37.834  47.447  1.00  0.00     0.164 C 
BRANCH  23  24
ATOM     24  CB  TRP     3      57.552  39.266  47.627  1.00  0.00     0.059 C 
BRANCH  24  25
ATOM     25  CG  TRP     3      56.418  39.341  48.654  1.00  0.00    -0.016 A 
ATOM     26  CD2 TRP     3      56.510  39.112  50.016  1.00  0.00    -0.001 A 
ATOM     27  CE2 TRP     3      55.228  39.252  50.525  1.00  0.00     0.042 A 
ATOM     28  CE3 TRP     3      57.567  38.761  50.844  1.00  0.00     0.014 A 
ATOM     29  NE1 TRP     3      54.428  39.559  49.505  1.00  0.00    -0.365 N 
ATOM     30  CZ2 TRP     3      55.000  39.034  51.879  1.00  0.00     0.030 A 
ATOM     31  HE1 TRP     3      53.447  39.738  49.568  1.00 99.99     0.165 HD
ATOM     32  CD1 TRP     3      55.146  39.612  48.383  1.00  0.00     0.097 A 
ATOM     33  CH2 TRP     3      56.052  38.669  52.710  1.00  0.00     0.002 A 
ATOM     34  CZ3 TRP     3      57.337  38.537  52.194  1.00  0.00     0.001 A 
ENDBRANCH  24  25
ENDBRANCH  23  24
BRANCH  23  35
ATOM     35  C   TRP     3      57.672  37.245  46.089  1.00  0.00     0.251 C 
ATOM     36  N   VAL     4      57.463  38.153  45.147  1.00  0.00    -0.338 N 
ATOM     37  H   VAL     4      57.598  39.128  45.320  1.00 99.99     0.164 HD
ATOM     38  O   TRP     3      57.510  36.034  45.934  1.00  0.00    -0.271 OA
BRANCH  36  39
ATOM     39  CA  VAL     4      57.029  37.820  43.776  1.00  0.00     0.159 C 
BRANCH  39  40
ATOM     40  C   VAL     4      58.231  38.077  42.855  1.00  0.00     0.251 C 
ATOM     41  N   ILE     5      58.736  39.309  42.901  1.00  0.00    -0.338 N 
ATOM     42  H   ILE     5      58.322  40.024  43.464  1.00 99.99     0.164 HD
ATOM     43  O   VAL     4      58.607  37.207  42.068  1.00  0.00    -0.271 OA
BRANCH  41  44
ATOM     44  CA  ILE     5      59.909  39.745  42.104  1.00  0.00     0.159 C 
BRANCH  44  45
ATOM     45  CB  ILE     5      59.545  40.942  41.194  1.00  0.00     0.029 C 
ATOM     46  CG2 ILE     5      60.768  41.330  40.341  1.00  0.00     0.002 C 
BRANCH  45  47
ATOM     47  CG1 ILE     5      58.360  40.612  40.267  1.00  0.00     0.002 C 
ATOM     48  CD  ILE     5      58.756  40.174  38.850  1.00  0.00     0.000 C 
ENDBRANCH  45  47
ENDBRANCH  44  45
BRANCH  44  49
ATOM     49  C   ILE     5      61.112  40.033  43.036  1.00  0.00     0.251 C 
ATOM     50  O   ILE     5      62.137  39.355  43.014  1.00  0.00    -0.271 OA
ATOM     51  N   ARG     6      60.966  41.163  43.726  1.00  0.00    -0.338 N 
ATOM     52  H   ARG     6      60.169  41.735  43.515  1.00 99.99     0.164 HD
BRANCH  51  53
ATOM     53  CA  ARG     6      61.886  41.784  44.708  1.00  0.00     0.159 C 
BRANCH  53  54
ATOM     54  C   ARG     6      61.040  42.654  45.669  1.00  0.00     0.251 C 
ATOM     55  N   TRP     7      61.289  42.430  46.957  1.00  0.00    -0.337 N 
ATOM     56  H   TRP     7      62.043  41.848  47.246  1.00 99.99     0.164 HD
ATOM     57  O   ARG     6      60.115  43.375  45.290  1.00  0.00    -0.271 OA
BRANCH  55  58
ATOM     58  CA  TRP     7      60.565  43.061  48.075  1.00  0.00     0.164 C 
BRANCH  58  59
ATOM     59  CB  TRP     7      59.571  42.013  48.596  1.00  0.00     0.059 C 
BRANCH  59  60
ATOM     60  CG  TRP     7      58.212  42.610  48.963  1.00  0.00    -0.016 A 
ATOM     61  CD1 TRP     7      57.293  43.000  48.084  1.00  0.00     0.097 A 
ATOM     62  NE1 TRP     7      56.116  43.132  48.693  1.00  0.00    -0.365 N 
ATOM     63  CE2 TRP     7      56.274  42.890  49.993  1.00  0.00     0.042 A 
ATOM     64  HE1 TRP     7      55.237  43.218  48.227  1.00 99.99     0.165 HD
ATOM     65  CZ2 TRP     7      55.382  42.890  51.057  1.00  0.00     0.030 A 
ATOM     66  CD2 TRP     7      57.603  42.564  50.206  1.00  0.00    -0.001 A 
ATOM     67  CH2 TRP     7      55.826  42.566  52.332  1.00  0.00     0.002 A 
ATOM     68  CZ3 TRP     7      57.164  42.250  52.546  1.00  0.00     0.001 A 
ATOM     69  CE3 TRP     7      58.056  42.245  51.480  1.00  0.00     0.014 A 
ENDBRANCH  59  60
ENDBRANCH  58  59
BRANCH  58  70
ATOM     70  C   TRP     7      61.513  43.595  49.167  1.00  0.00     0.251 C 
ATOM     71  O   TRP     7      61.361  43.308  50.354  1.00  0.00    -0.271 OA
ATOM     72  N   ARG     8      62.571  44.247  48.691  1.00  0.00    -0.336 N 
ATOM     73  H   ARG     8      62.695  44.354  47.706  1.00 99.99     0.164 HD
BRANCH  72  74
ATOM     74  CA  ARG     8      63.606  44.910  49.522  1.00  0.00     0.168 C 
BRANCH  74  75
ATOM     75  C   ARG     8      63.043  46.221  50.100  1.00  0.00     0.206 C 
ATOM     76  O   ARG     8      62.642  46.222  51.282  1.00 99.99    -0.646 OA
ATOM     77  OXT ARG     8      62.876  47.147  49.273  1.00 99.99    -0.646 OA
ENDBRANCH  74  75
BRANCH  74  78
ATOM     78  CB  ARG     8      64.823  45.286  48.671  1.00  0.00     0.035 C 
BRANCH  78  79
ATOM     79  CG  ARG     8      66.084  44.483  48.987  1.00  0.00     0.027 C 
BRANCH  79  80
ATOM     80  CD  ARG     8      66.116  43.243  48.100  1.00  0.00     0.116 C 
BRANCH  80  81
ATOM     81  NE  ARG     8      65.852  42.049  48.921  1.00  0.00    -0.212 N 
ATOM     82  CZ  ARG     8      66.460  40.868  48.797  1.00  0.00     0.666 C 
ATOM     83  NH1 ARG     8      67.395  40.657  47.878  1.00  0.00    -0.235 N 
ATOM     84  NH2 ARG     8      66.152  39.872  49.615  1.00  0.00    -0.235 N 
ATOM     85 1HH1 ARG     8      67.839  39.767  47.799  1.00 99.99     0.174 HD
ATOM     86 2HH1 ARG     8      67.646  41.406  47.268  1.00 99.99     0.174 HD
ATOM     87 1HH2 ARG     8      66.613  38.994  49.512  1.00 99.99     0.174 HD
ATOM     88 2HH2 ARG     8      65.461  39.993  50.325  1.00 99.99     0.174 HD
ATOM     89  HE  ARG     8      65.131  42.155  49.603  1.00 99.99     0.178 HD
ENDBRANCH  80  81
ENDBRANCH  79  80
ENDBRANCH  78  79
ENDBRANCH  74  78
ENDBRANCH  72  74
ENDBRANCH  58  70
ENDBRANCH  55  58
ENDBRANCH  53  54
BRANCH  53  90
ATOM     90  CB  ARG     6      62.938  42.623  43.967  1.00  0.00     0.034 C 
BRANCH  90  91
ATOM     91  CG  ARG     6      64.202  42.841  44.796  1.00  0.00     0.027 C 
BRANCH  91  92
ATOM     92  CD  ARG     6      65.309  41.928  44.279  1.00  0.00     0.116 C 
BRANCH  92  93
ATOM     93  NE  ARG     6      66.617  42.536  44.570  1.00  0.00    -0.212 N 
ATOM     94  HE  ARG     6      66.581  43.388  45.086  1.00 99.99     0.178 HD
ATOM     95  CZ  ARG     6      67.806  42.027  44.242  1.00  0.00     0.666 C 
ATOM     96  NH1 ARG     6      67.920  40.852  43.633  1.00  0.00    -0.235 N 
ATOM     97  NH2 ARG     6      68.911  42.730  44.444  1.00  0.00    -0.235 N 
ATOM     98 2HH1 ARG     6      67.090  40.338  43.426  1.00 99.99     0.174 HD
ATOM     99 1HH1 ARG     6      68.817  40.487  43.396  1.00 99.99     0.174 HD
ATOM    100 1HH2 ARG     6      69.793  42.337  44.192  1.00 99.99     0.174 HD
ATOM    101 2HH2 ARG     6      68.864  43.645  44.840  1.00 99.99     0.174 HD
ENDBRANCH  92  93
ENDBRANCH  91  92
ENDBRANCH  90  91
ENDBRANCH  53  90
ENDBRANCH  51  53
ENDBRANCH  44  49
ENDBRANCH  41  44
ENDBRANCH  39  40
BRANCH  39 102
ATOM    102  CB  VAL     4      55.811  38.680  43.374  1.00  0.00     0.029 C 
ATOM    103  CG2 VAL     4      55.148  39.342  44.589  1.00  0.00     0.002 C 
ATOM    104  CG1 VAL     4      54.750  37.863  42.625  1.00  0.00     0.002 C 
ENDBRANCH  39 102
ENDBRANCH  36  39
ENDBRANCH  23  35
ENDBRANCH  20  23
ENDBRANCH  18  19
BRANCH  18 105
ATOM    105  CB  ILE     2      62.546  37.400  46.921  1.00  0.00     0.029 C 
ATOM    106  CG2 ILE     2      62.060  36.864  45.560  1.00  0.00     0.002 C 
BRANCH 105 107
ATOM    107  CG1 ILE     2      64.072  37.595  46.979  1.00  0.00     0.002 C 
ATOM    108  CD  ILE     2      64.605  38.780  46.160  1.00  0.00     0.000 C 
ENDBRANCH 105 107
ENDBRANCH  18 105
ENDBRANCH  16  18
ENDBRANCH   5  14
ENDBRANCH   1   5
TORSDOF 38
ENDMDL
MODEL 2
REMARK VINA RESULT:      -4.3      2.852      7.534
REMARK WARNING: 32 MAX_TORS EXCEEDED!!!
REMARK  38 active torsions:
REMARK  status: ('A' for Active; 'I' for Inactive)
REMARK    1  A    between atoms: N_1  and  CA_2 
REMARK    2  A    between atoms: CA_2  and  CB_5 
REMARK    3  A    between atoms: CA_2  and  C_3 
REMARK       I    between atoms: C_3  and  N_16 
REMARK    4  A    between atoms: CB_5  and  CG_6 
REMARK    5  A    between atoms: CG_6  and  CD_7 
REMARK    6  A    between atoms: CD_7  and  CE_8 
REMARK    7  A    between atoms: CE_8  and  NZ_9 
REMARK    8  A    between atoms: N_16  and  CA_17 
REMARK    9  A    between atoms: CA_17  and  C_18 
REMARK   10  A    between atoms: CA_17  and  CB_20 
REMARK       I    between atoms: C_18  and  N_25 
REMARK   11  A    between atoms: CB_20  and  CG1_21 
REMARK   12  A    between atoms: N_25  and  CA_26 
REMARK   13  A    between atoms: CA_26  and  CB_29 
REMARK   14  A    between atoms: CA_26  and  C_27 
REMARK       I    between atoms: C_27  and  N_41 
REMARK   15  A    between atoms: CB_29  and  CG_30 
REMARK   16  A    between atoms: N_41  and  CA_42 
REMARK   17  A    between atoms: CA_42  and  C_43 
REMARK   18  A    between atoms: CA_42  and  CB_45 
REMARK       I    between atoms: C_43  and  N_49 
REMARK   19  A    between atoms: N_49  and  CA_50 
REMARK   20  A    between atoms: CA_50  and  CB_53 
REMARK   21  A    between atoms: CA_50  and  C_51 
REMARK       I    between atoms: C_51  and  N_58 
REMARK   22  A    between atoms: CB_53  and  CG1_54 
REMARK   23  A    between atoms: N_58  and  CA_59 
REMARK   24  A    between atoms: CA_59  and  C_60 
REMARK   25  A    between atoms: CA_59  and  CB_62 
REMARK       I    between atoms: C_60  and  N_75 
REMARK   26  A    between atoms: CB_62  and  CG_63 
REMARK   27  A    between atoms: CG_63  and  CD_64 
REMARK   28  A    between atoms: CD_64  and  NE_65 
REMARK       I    between atoms: NE_65  and  CZ_66 
REMARK       I    between atoms: CZ_66  and  NH1_67 
REMARK       I    between atoms: CZ_66  and  NH2_68 
REMARK   29  A    between atoms: N_75  and  CA_76 
REMARK   30  A    between atoms: CA_76  and  CB_79 
REMARK   31  A    between atoms: CA_76  and  C_77 
REMARK       I    between atoms: C_77  and  N_91 
REMARK   32  A    between atoms: CB_79  and  CG_80 
REMARK   33  A    between atoms: N_91  and  CA_92 
REMARK   34  A    between atoms: CA_92  and  C_93 
REMARK   35  A    between atoms: CA_92  and  CB_95 
REMARK   36  A    between atoms: CB_95  and  CG_96 
REMARK   37  A    between atoms: CG_96  and  CD_97 
REMARK   38  A    between atoms: CD_97  and  NE_98 
REMARK       I    between atoms: NE_98  and  CZ_99 
REMARK       I    between atoms: CZ_99  and  NH1_100 
ROOT
ATOM      1  N   LYS     1      59.418  43.832  47.835  1.00  0.00    -0.058 N 
ATOM      2  H1  LYS     1      59.154  44.495  48.539  1.00 99.99     0.276 HD
ATOM      3  H2  LYS     1      59.740  43.020  48.285  1.00 99.99     0.276 HD
ATOM      4  H3  LYS     1      60.188  44.184  47.330  1.00 99.99     0.276 HD
ENDROOT
BRANCH   1   5
ATOM      5  CA  LYS     1      58.225  43.581  46.997  1.00  0.00     0.255 C 
BRANCH   5   6
ATOM      6  CB  LYS     1      58.238  42.178  46.358  1.00  0.00     0.040 C 
BRANCH   6   7
ATOM      7  CG  LYS     1      57.903  42.101  44.862  1.00  0.00     0.004 C 
BRANCH   7   8
ATOM      8  CD  LYS     1      57.055  40.855  44.566  1.00  0.00     0.032 C 
BRANCH   8   9
ATOM      9  CE  LYS     1      57.485  39.641  45.399  1.00  0.00     0.206 C 
BRANCH   9  10
ATOM     10  NZ  LYS     1      57.437  38.388  44.621  1.00  0.00    -0.064 N 
ATOM     11  HZ1 LYS     1      58.320  37.923  44.679  1.00 99.99     0.275 HD
ATOM     12  HZ2 LYS     1      56.726  37.787  44.987  1.00 99.99     0.275 HD
ATOM     13  HZ3 LYS     1      57.237  38.590  43.662  1.00 99.99     0.275 HD
ENDBRANCH   9  10
ENDBRANCH   8   9
ENDBRANCH   7   8
ENDBRANCH   6   7
ENDBRANCH   5   6
BRANCH   5  14
ATOM     14  C   LYS     1      56.977  43.663  47.906  1.00  0.00     0.259 C 
ATOM     15  O   LYS     1      56.266  44.668  47.883  1.00  0.00    -0.271 OA
ATOM     16  N   ILE     2      56.647  42.570  48.587  1.00  0.00    -0.338 N 
ATOM     17  H   ILE     2      57.170  41.719  48.550  1.00 99.99     0.164 HD
BRANCH  16  18
ATOM     18  CA  ILE     2      55.505  42.531  49.521  1.00  0.00     0.159 C 
BRANCH  18  19
ATOM     19  C   ILE     2      56.005  42.847  50.943  1.00  0.00     0.251 C 
ATOM     20  N   TRP     3      56.671  41.874  51.554  1.00  0.00    -0.337 N 
ATOM     21  H   TRP     3      56.723  40.942  51.195  1.00 99.99     0.164 HD
ATOM     22  O   ILE     2      55.688  43.902  51.489  1.00  0.00    -0.271 OA
BRANCH  20  23
ATOM     23  CA  TRP     3      57.385  42.085  52.823  1.00  0.00     0.164 C 
BRANCH  23  24
ATOM     24  CB  TRP     3      57.215  40.863  53.733  1.00  0.00     0.059 C 
BRANCH  24  25
ATOM     25  CG  TRP     3      55.896  40.129  53.471  1.00  0.00    -0.016 A 
ATOM     26  CD2 TRP     3      55.653  39.171  52.502  1.00  0.00    -0.001 A 
ATOM     27  CE2 TRP     3      54.314  38.828  52.616  1.00  0.00     0.042 A 
ATOM     28  CE3 TRP     3      56.449  38.602  51.519  1.00  0.00     0.014 A 
ATOM     29  NE1 TRP     3      53.804  39.549  53.614  1.00  0.00    -0.365 N 
ATOM     30  CZ2 TRP     3      53.765  37.907  51.732  1.00  0.00     0.030 A 
ATOM     31  HE1 TRP     3      52.862  39.504  53.943  1.00 99.99     0.165 HD
ATOM     32  CD1 TRP     3      54.758  40.329  54.126  1.00  0.00     0.097 A 
ATOM     33  CH2 TRP     3      54.554  37.343  50.737  1.00  0.00     0.002 A 
ATOM     34  CZ3 TRP     3      55.898  37.686  50.634  1.00  0.00     0.001 A 
ENDBRANCH  24  25
ENDBRANCH  23  24
BRANCH  23  35
ATOM     35  C   TRP     3      58.860  42.372  52.517  1.00  0.00     0.251 C 
ATOM     36  N   VAL     4      59.410  41.518  51.664  1.00  0.00    -0.338 N 
ATOM     37  H   VAL     4      58.879  40.783  51.244  1.00 99.99     0.164 HD
ATOM     38  O   TRP     3      59.469  43.286  53.072  1.00  0.00    -0.271 OA
BRANCH  36  39
ATOM     39  CA  VAL     4      60.827  41.574  51.256  1.00  0.00     0.159 C 
BRANCH  39  40
ATOM     40  C   VAL     4      60.890  41.085  49.801  1.00  0.00     0.251 C 
ATOM     41  N   ILE     5      62.107  40.787  49.348  1.00  0.00    -0.338 N 
ATOM     42  H   ILE     5      62.923  40.924  49.910  1.00 99.99     0.164 HD
ATOM     43  O   VAL     4      59.875  41.081  49.104  1.00  0.00    -0.271 OA
BRANCH  41  44
ATOM     44  CA  ILE     5      62.371  40.279  47.979  1.00  0.00     0.159 C 
BRANCH  44  45
ATOM     45  CB  ILE     5      61.244  39.324  47.518  1.00  0.00     0.029 C 
ATOM     46  CG2 ILE     5      61.121  39.377  45.984  1.00  0.00     0.002 C 
BRANCH  45  47
ATOM     47  CG1 ILE     5      61.512  37.873  47.959  1.00  0.00     0.002 C 
ATOM     48  CD  ILE     5      60.728  37.425  49.202  1.00  0.00     0.000 C 
ENDBRANCH  45  47
ENDBRANCH  44  45
BRANCH  44  49
ATOM     49  C   ILE     5      62.604  41.460  47.006  1.00  0.00     0.251 C 
ATOM     50  O   ILE     5      61.966  42.509  47.081  1.00  0.00    -0.271 OA
ATOM     51  N   ARG     6      63.653  41.268  46.208  1.00  0.00    -0.338 N 
ATOM     52  H   ARG     6      64.217  40.454  46.371  1.00 99.99     0.164 HD
BRANCH  51  53
ATOM     53  CA  ARG     6      64.202  42.155  45.156  1.00  0.00     0.159 C 
BRANCH  53  54
ATOM     54  C   ARG     6      65.144  43.177  45.838  1.00  0.00     0.251 C 
ATOM     55  N   TRP     7      66.221  42.627  46.395  1.00  0.00    -0.337 N 
ATOM     56  H   TRP     7      66.442  41.666  46.258  1.00 99.99     0.164 HD
ATOM     57  O   ARG     6      64.855  44.365  45.991  1.00  0.00    -0.271 OA
BRANCH  55  58
ATOM     58  CA  TRP     7      67.230  43.362  47.177  1.00  0.00     0.164 C 
BRANCH  58  59
ATOM     59  CB  TRP     7      66.734  43.365  48.632  1.00  0.00     0.059 C 
BRANCH  59  60
ATOM     60  CG  TRP     7      66.098  44.693  49.043  1.00  0.00    -0.016 A 
ATOM     61  CD1 TRP     7      66.665  45.886  48.883  1.00  0.00     0.097 A 
ATOM     62  NE1 TRP     7      65.743  46.840  49.000  1.00  0.00    -0.365 N 
ATOM     63  CE2 TRP     7      64.574  46.277  49.302  1.00  0.00     0.042 A 
ATOM     64  HE1 TRP     7      65.867  47.793  48.728  1.00 99.99     0.165 HD
ATOM     65  CZ2 TRP     7      63.313  46.809  49.526  1.00  0.00     0.030 A 
ATOM     66  CD2 TRP     7      64.764  44.905  49.349  1.00  0.00    -0.001 A 
ATOM     67  CH2 TRP     7      62.244  45.965  49.800  1.00  0.00     0.002 A 
ATOM     68  CZ3 TRP     7      62.439  44.589  49.859  1.00  0.00     0.001 A 
ATOM     69  CE3 TRP     7      63.702  44.056  49.629  1.00  0.00     0.014 A 
ENDBRANCH  59  60
ENDBRANCH  58  59
BRANCH  58  70
ATOM     70  C   TRP     7      68.646  42.774  47.019  1.00  0.00     0.251 C 
ATOM     71  O   TRP     7      69.134  42.026  47.864  1.00  0.00    -0.271 OA
ATOM     72  N   ARG     8      69.203  43.022  45.836  1.00  0.00    -0.336 N 
ATOM     73  H   ARG     8      68.709  43.549  45.147  1.00 99.99     0.164 HD
BRANCH  72  74
ATOM     74  CA  ARG     8      70.577  42.623  45.444  1.00  0.00     0.168 C 
BRANCH  74  75
ATOM     75  C   ARG     8      71.220  43.741  44.604  1.00  0.00     0.206 C 
ATOM     76  O   ARG     8      71.695  43.445  43.488  1.00 99.99    -0.646 OA
ATOM     77  OXT ARG     8      71.364  44.840  45.188  1.00 99.99    -0.646 OA
ENDBRANCH  74  75
BRANCH  74  78
ATOM     78  CB  ARG     8      70.544  41.370  44.563  1.00  0.00     0.035 C 
BRANCH  78  79
ATOM     79  CG  ARG     8      70.614  40.054  45.338  1.00  0.00     0.027 C 
BRANCH  79  80
ATOM     80  CD  ARG     8      69.273  39.337  45.219  1.00  0.00     0.116 C 
BRANCH  80  81
ATOM     81  NE  ARG     8      68.627  39.289  46.541  1.00  0.00    -0.212 N 
ATOM     82  CZ  ARG     8      67.314  39.194  46.763  1.00  0.00     0.666 C 
ATOM     83  NH1 ARG     8      66.439  39.135  45.767  1.00  0.00    -0.235 N 
ATOM     84  NH2 ARG     8      66.853  39.134  48.004  1.00  0.00    -0.235 N 
ATOM     85 1HH1 ARG     8      65.462  39.064  45.951  1.00 99.99     0.174 HD
ATOM     86 2HH1 ARG     8      66.779  39.162  44.829  1.00 99.99     0.174 HD
ATOM     87 1HH2 ARG     8      65.870  39.063  48.158  1.00 99.99     0.174 HD
ATOM     88 2HH2 ARG     8      67.479  39.166  48.781  1.00 99.99     0.174 HD
ATOM     89  HE  ARG     8      69.248  39.365  47.319  1.00 99.99     0.178 HD
ENDBRANCH  80  81
ENDBRANCH  79  80
ENDBRANCH  78  79
ENDBRANCH  74  78
ENDBRANCH  72  74
ENDBRANCH  58  70
ENDBRANCH  55  58
ENDBRANCH  53  54
BRANCH  53  90
ATOM     90  CB  ARG     6      63.049  42.855  44.420  1.00  0.00     0.034 C 
BRANCH  90  91
ATOM     91  CG  ARG     6      62.705  42.179  43.095  1.00  0.00     0.027 C 
BRANCH  91  92
ATOM     92  CD  ARG     6      61.205  41.906  43.043  1.00  0.00     0.116 C 
BRANCH  92  93
ATOM     93  NE  ARG     6      60.536  43.002  42.323  1.00  0.00    -0.212 N 
ATOM     94  HE  ARG     6      60.610  43.897  42.756  1.00 99.99     0.178 HD
ATOM     95  CZ  ARG     6      59.899  42.897  41.155  1.00  0.00     0.666 C 
ATOM     96  NH1 ARG     6      59.846  41.749  40.490  1.00  0.00    -0.235 N 
ATOM     97  NH2 ARG     6      59.225  43.928  40.669  1.00  0.00    -0.235 N 
ATOM     98 2HH1 ARG     6      60.304  40.951  40.874  1.00 99.99     0.174 HD
ATOM     99 1HH1 ARG     6      59.365  41.689  39.618  1.00 99.99     0.174 HD
ATOM    100 1HH2 ARG     6      58.752  43.834  39.795  1.00 99.99     0.174 HD
ATOM    101 2HH2 ARG     6      59.186  44.790  41.169  1.00 99.99     0.174 HD
ENDBRANCH  92  93
ENDBRANCH  91  92
ENDBRANCH  90  91
ENDBRANCH  53  90
ENDBRANCH  51  53
ENDBRANCH  44  49
ENDBRANCH  41  44
ENDBRANCH  39  40
BRANCH  39 102
ATOM    102  CB  VAL     4      61.690  40.696  52.188  1.00  0.00     0.029 C 
ATOM    103  CG2 VAL     4      60.881  39.548  52.809  1.00  0.00     0.002 C 
ATOM    104  CG1 VAL     4      62.328  41.510  53.320  1.00  0.00     0.002 C 
ENDBRANCH  39 102
ENDBRANCH  36  39
ENDBRANCH  23  35
ENDBRANCH  20  23
ENDBRANCH  18  19
BRANCH  18 105
ATOM    105  CB  ILE     2      54.780  41.166  49.399  1.00  0.00     0.029 C 
ATOM    106  CG2 ILE     2      53.288  41.261  49.773  1.00  0.00     0.002 C 
BRANCH 105 107
ATOM    107  CG1 ILE     2      55.014  40.535  48.014  1.00  0.00     0.002 C 
ATOM    108  CD  ILE     2      54.007  39.443  47.622  1.00  0.00     0.000 C 
ENDBRANCH 105 107
ENDBRANCH  18 105
ENDBRANCH  16  18
ENDBRANCH   5  14
ENDBRANCH   1   5
TORSDOF 38
ENDMDL
MODEL 3
REMARK VINA RESULT:      -4.1      2.697      7.933
REMARK WARNING: 32 MAX_TORS EXCEEDED!!!
REMARK  38 active torsions:
REMARK  status: ('A' for Active; 'I' for Inactive)
REMARK    1  A    between atoms: N_1  and  CA_2 
REMARK    2  A    between atoms: CA_2  and  CB_5 
REMARK    3  A    between atoms: CA_2  and  C_3 
REMARK       I    between atoms: C_3  and  N_16 
REMARK    4  A    between atoms: CB_5  and  CG_6 
REMARK    5  A    between atoms: CG_6  and  CD_7 
REMARK    6  A    between atoms: CD_7  and  CE_8 
REMARK    7  A    between atoms: CE_8  and  NZ_9 
REMARK    8  A    between atoms: N_16  and  CA_17 
REMARK    9  A    between atoms: CA_17  and  C_18 
REMARK   10  A    between atoms: CA_17  and  CB_20 
REMARK       I    between atoms: C_18  and  N_25 
REMARK   11  A    between atoms: CB_20  and  CG1_21 
REMARK   12  A    between atoms: N_25  and  CA_26 
REMARK   13  A    between atoms: CA_26  and  CB_29 
REMARK   14  A    between atoms: CA_26  and  C_27 
REMARK       I    between atoms: C_27  and  N_41 
REMARK   15  A    between atoms: CB_29  and  CG_30 
REMARK   16  A    between atoms: N_41  and  CA_42 
REMARK   17  A    between atoms: CA_42  and  C_43 
REMARK   18  A    between atoms: CA_42  and  CB_45 
REMARK       I    between atoms: C_43  and  N_49 
REMARK   19  A    between atoms: N_49  and  CA_50 
REMARK   20  A    between atoms: CA_50  and  CB_53 
REMARK   21  A    between atoms: CA_50  and  C_51 
REMARK       I    between atoms: C_51  and  N_58 
REMARK   22  A    between atoms: CB_53  and  CG1_54 
REMARK   23  A    between atoms: N_58  and  CA_59 
REMARK   24  A    between atoms: CA_59  and  C_60 
REMARK   25  A    between atoms: CA_59  and  CB_62 
REMARK       I    between atoms: C_60  and  N_75 
REMARK   26  A    between atoms: CB_62  and  CG_63 
REMARK   27  A    between atoms: CG_63  and  CD_64 
REMARK   28  A    between atoms: CD_64  and  NE_65 
REMARK       I    between atoms: NE_65  and  CZ_66 
REMARK       I    between atoms: CZ_66  and  NH1_67 
REMARK       I    between atoms: CZ_66  and  NH2_68 
REMARK   29  A    between atoms: N_75  and  CA_76 
REMARK   30  A    between atoms: CA_76  and  CB_79 
REMARK   31  A    between atoms: CA_76  and  C_77 
REMARK       I    between atoms: C_77  and  N_91 
REMARK   32  A    between atoms: CB_79  and  CG_80 
REMARK   33  A    between atoms: N_91  and  CA_92 
REMARK   34  A    between atoms: CA_92  and  C_93 
REMARK   35  A    between atoms: CA_92  and  CB_95 
REMARK   36  A    between atoms: CB_95  and  CG_96 
REMARK   37  A    between atoms: CG_96  and  CD_97 
REMARK   38  A    between atoms: CD_97  and  NE_98 
REMARK       I    between atoms: NE_98  and  CZ_99 
REMARK       I    between atoms: CZ_99  and  NH1_100 
ROOT
ATOM      1  N   LYS     1      65.321  43.381  45.578  1.00  0.00    -0.058 N 
ATOM      2  H1  LYS     1      65.678  43.409  44.642  1.00 99.99     0.276 HD
ATOM      3  H2  LYS     1      64.636  42.679  45.624  1.00 99.99     0.276 HD
ATOM      4  H3  LYS     1      64.852  44.227  45.771  1.00 99.99     0.276 HD
ENDROOT
BRANCH   1   5
ATOM      5  CA  LYS     1      66.465  43.119  46.479  1.00  0.00     0.255 C 
BRANCH   5   6
ATOM      6  CB  LYS     1      67.666  44.041  46.190  1.00  0.00     0.040 C 
BRANCH   6   7
ATOM      7  CG  LYS     1      68.974  43.355  45.772  1.00  0.00     0.004 C 
BRANCH   7   8
ATOM      8  CD  LYS     1      68.719  41.879  45.428  1.00  0.00     0.032 C 
BRANCH   8   9
ATOM      9  CE  LYS     1      68.843  41.597  43.926  1.00  0.00     0.206 C 
BRANCH   9  10
ATOM     10  NZ  LYS     1      67.599  41.910  43.197  1.00  0.00    -0.064 N 
ATOM     11  HZ1 LYS     1      66.895  41.240  43.432  1.00 99.99     0.275 HD
ATOM     12  HZ2 LYS     1      67.277  42.823  43.450  1.00 99.99     0.275 HD
ATOM     13  HZ3 LYS     1      67.764  41.878  42.211  1.00 99.99     0.275 HD
ENDBRANCH   9  10
ENDBRANCH   8   9
ENDBRANCH   7   8
ENDBRANCH   6   7
ENDBRANCH   5   6
BRANCH   5  14
ATOM     14  C   LYS     1      66.005  43.398  47.928  1.00  0.00     0.259 C 
ATOM     15  O   LYS     1      66.754  43.136  48.871  1.00  0.00    -0.271 OA
ATOM     16  N   ILE     2      64.854  44.043  48.088  1.00  0.00    -0.338 N 
ATOM     17  H   ILE     2      64.276  44.336  47.327  1.00 99.99     0.164 HD
BRANCH  16  18
ATOM     18  CA  ILE     2      64.285  44.333  49.419  1.00  0.00     0.159 C 
BRANCH  18  19
ATOM     19  C   ILE     2      63.163  43.320  49.717  1.00  0.00     0.251 C 
ATOM     20  N   TRP     3      63.300  42.614  50.832  1.00  0.00    -0.337 N 
ATOM     21  H   TRP     3      64.139  42.613  51.376  1.00 99.99     0.164 HD
ATOM     22  O   ILE     2      62.273  43.124  48.891  1.00  0.00    -0.271 OA
BRANCH  20  23
ATOM     23  CA  TRP     3      62.223  41.760  51.361  1.00  0.00     0.164 C 
BRANCH  23  24
ATOM     24  CB  TRP     3      60.908  42.546  51.416  1.00  0.00     0.059 C 
BRANCH  24  25
ATOM     25  CG  TRP     3      59.912  41.932  52.404  1.00  0.00    -0.016 A 
ATOM     26  CD2 TRP     3      58.532  41.905  52.288  1.00  0.00    -0.001 A 
ATOM     27  CE2 TRP     3      58.054  41.289  53.434  1.00  0.00     0.042 A 
ATOM     28  CE3 TRP     3      57.658  42.388  51.325  1.00  0.00     0.014 A 
ATOM     29  NE1 TRP     3      59.110  40.964  54.179  1.00  0.00    -0.365 N 
ATOM     30  CZ2 TRP     3      56.683  41.158  53.621  1.00  0.00     0.030 A 
ATOM     31  HE1 TRP     3      59.079  40.489  55.058  1.00 99.99     0.165 HD
ATOM     32  CD1 TRP     3      60.224  41.351  53.557  1.00  0.00     0.097 A 
ATOM     33  CH2 TRP     3      55.801  41.651  52.667  1.00  0.00     0.002 A 
ATOM     34  CZ3 TRP     3      56.289  42.261  51.516  1.00  0.00     0.001 A 
ENDBRANCH  24  25
ENDBRANCH  23  24
BRANCH  23  35
ATOM     35  C   TRP     3      62.109  40.510  50.480  1.00  0.00     0.251 C 
ATOM     36  N   VAL     4      60.990  40.449  49.771  1.00  0.00    -0.338 N 
ATOM     37  H   VAL     4      60.314  41.185  49.797  1.00 99.99     0.164 HD
ATOM     38  O   TRP     3      62.969  39.629  50.495  1.00  0.00    -0.271 OA
BRANCH  36  39
ATOM     39  CA  VAL     4      60.646  39.319  48.887  1.00  0.00     0.159 C 
BRANCH  39  40
ATOM     40  C   VAL     4      60.413  39.905  47.487  1.00  0.00     0.251 C 
ATOM     41  N   ILE     5      60.306  41.233  47.431  1.00  0.00    -0.338 N 
ATOM     42  H   ILE     5      60.328  41.794  48.258  1.00 99.99     0.164 HD
ATOM     43  O   VAL     4      60.240  39.159  46.522  1.00  0.00    -0.271 OA
BRANCH  41  44
ATOM     44  CA  ILE     5      60.101  41.986  46.169  1.00  0.00     0.159 C 
BRANCH  44  45
ATOM     45  CB  ILE     5      59.561  43.408  46.456  1.00  0.00     0.029 C 
ATOM     46  CG2 ILE     5      58.731  43.895  45.254  1.00  0.00     0.002 C 
BRANCH  45  47
ATOM     47  CG1 ILE     5      58.690  43.440  47.726  1.00  0.00     0.002 C 
ATOM     48  CD  ILE     5      57.179  43.532  47.465  1.00  0.00     0.000 C 
ENDBRANCH  45  47
ENDBRANCH  44  45
BRANCH  44  49
ATOM     49  C   ILE     5      61.402  41.987  45.330  1.00  0.00     0.251 C 
ATOM     50  O   ILE     5      62.419  42.573  45.696  1.00  0.00    -0.271 OA
ATOM     51  N   ARG     6      61.335  41.171  44.279  1.00  0.00    -0.338 N 
ATOM     52  H   ARG     6      60.518  40.594  44.191  1.00 99.99     0.164 HD
BRANCH  51  53
ATOM     53  CA  ARG     6      62.361  40.889  43.248  1.00  0.00     0.159 C 
BRANCH  53  54
ATOM     54  C   ARG     6      61.656  40.856  41.871  1.00  0.00     0.251 C 
ATOM     55  N   TRP     7      60.474  41.470  41.857  1.00  0.00    -0.337 N 
ATOM     56  H   TRP     7      60.157  42.003  42.636  1.00 99.99     0.164 HD
ATOM     57  O   ARG     6      62.068  40.196  40.916  1.00  0.00    -0.271 OA
BRANCH  55  58
ATOM     58  CA  TRP     7      59.562  41.511  40.701  1.00  0.00     0.164 C 
BRANCH  58  59
ATOM     59  CB  TRP     7      58.135  41.491  41.271  1.00  0.00     0.059 C 
BRANCH  59  60
ATOM     60  CG  TRP     7      57.777  40.160  41.933  1.00  0.00    -0.016 A 
ATOM     61  CD1 TRP     7      58.017  38.963  41.407  1.00  0.00     0.097 A 
ATOM     62  NE1 TRP     7      57.924  38.029  42.352  1.00  0.00    -0.365 N 
ATOM     63  CE2 TRP     7      57.556  38.607  43.494  1.00  0.00     0.042 A 
ATOM     64  HE1 TRP     7      58.250  37.089  42.263  1.00 99.99     0.165 HD
ATOM     65  CZ2 TRP     7      57.321  38.098  44.764  1.00  0.00     0.030 A 
ATOM     66  CD2 TRP     7      57.441  39.968  43.263  1.00  0.00    -0.001 A 
ATOM     67  CH2 TRP     7      56.968  38.955  45.798  1.00  0.00     0.002 A 
ATOM     68  CZ3 TRP     7      56.842  40.320  45.561  1.00  0.00     0.001 A 
ATOM     69  CE3 TRP     7      57.082  40.830  44.292  1.00  0.00     0.014 A 
ENDBRANCH  59  60
ENDBRANCH  58  59
BRANCH  58  70
ATOM     70  C   TRP     7      59.831  42.717  39.778  1.00  0.00     0.251 C 
ATOM     71  O   TRP     7      59.851  43.869  40.209  1.00  0.00    -0.271 OA
ATOM     72  N   ARG     8      60.185  42.380  38.541  1.00  0.00    -0.336 N 
ATOM     73  H   ARG     8      60.256  41.418  38.281  1.00 99.99     0.164 HD
BRANCH  72  74
ATOM     74  CA  ARG     8      60.444  43.340  37.440  1.00  0.00     0.168 C 
BRANCH  74  75
ATOM     75  C   ARG     8      59.208  43.423  36.526  1.00  0.00     0.206 C 
ATOM     76  O   ARG     8      58.747  44.552  36.257  1.00 99.99    -0.646 OA
ATOM     77  OXT ARG     8      58.659  42.330  36.260  1.00 99.99    -0.646 OA
ENDBRANCH  74  75
BRANCH  74  78
ATOM     78  CB  ARG     8      61.609  42.860  36.568  1.00  0.00     0.035 C 
BRANCH  78  79
ATOM     79  CG  ARG     8      62.990  43.098  37.178  1.00  0.00     0.027 C 
BRANCH  79  80
ATOM     80  CD  ARG     8      63.661  41.750  37.424  1.00  0.00     0.116 C 
BRANCH  80  81
ATOM     81  NE  ARG     8      63.856  41.560  38.871  1.00  0.00    -0.212 N 
ATOM     82  CZ  ARG     8      65.025  41.346  39.478  1.00  0.00     0.666 C 
ATOM     83  NH1 ARG     8      66.163  41.280  38.799  1.00  0.00    -0.235 N 
ATOM     84  NH2 ARG     8      65.075  41.215  40.796  1.00  0.00    -0.235 N 
ATOM     85 1HH1 ARG     8      67.028  41.119  39.268  1.00 99.99     0.174 HD
ATOM     86 2HH1 ARG     8      66.137  41.395  37.808  1.00 99.99     0.174 HD
ATOM     87 1HH2 ARG     8      65.955  41.055  41.238  1.00 99.99     0.174 HD
ATOM     88 2HH2 ARG     8      64.243  41.267  41.344  1.00 99.99     0.174 HD
ATOM     89  HE  ARG     8      63.019  41.569  39.416  1.00 99.99     0.178 HD
ENDBRANCH  80  81
ENDBRANCH  79  80
ENDBRANCH  78  79
ENDBRANCH  74  78
ENDBRANCH  72  74
ENDBRANCH  58  70
ENDBRANCH  55  58
ENDBRANCH  53  54
BRANCH  53  90
ATOM     90  CB  ARG     6      63.048  39.551  43.560  1.00  0.00     0.034 C 
BRANCH  90  91
ATOM     91  CG  ARG     6      64.225  39.708  44.522  1.00  0.00     0.027 C 
BRANCH  91  92
ATOM     92  CD  ARG     6      64.138  38.636  45.604  1.00  0.00     0.116 C 
BRANCH  92  93
ATOM     93  NE  ARG     6      65.070  38.968  46.694  1.00  0.00    -0.212 N 
ATOM     94  HE  ARG     6      65.924  38.456  46.689  1.00 99.99     0.178 HD
ATOM     95  CZ  ARG     6      64.879  39.902  47.628  1.00  0.00     0.666 C 
ATOM     96  NH1 ARG     6      63.801  40.677  47.631  1.00  0.00    -0.235 N 
ATOM     97  NH2 ARG     6      65.732  40.022  48.634  1.00  0.00    -0.235 N 
ATOM     98 2HH1 ARG     6      63.123  40.558  46.909  1.00 99.99     0.174 HD
ATOM     99 1HH1 ARG     6      63.674  41.369  48.338  1.00 99.99     0.174 HD
ATOM    100 1HH2 ARG     6      65.576  40.724  49.326  1.00 99.99     0.174 HD
ATOM    101 2HH2 ARG     6      66.522  39.416  48.704  1.00 99.99     0.174 HD
ENDBRANCH  92  93
ENDBRANCH  91  92
ENDBRANCH  90  91
ENDBRANCH  53  90
ENDBRANCH  51  53
ENDBRANCH  44  49
ENDBRANCH  41  44
ENDBRANCH  39  40
BRANCH  39 102
ATOM    102  CB  VAL     4      59.392  38.587  49.413  1.00  0.00     0.029 C 
ATOM    103  CG2 VAL     4      58.134  39.462  49.320  1.00  0.00     0.002 C 
ATOM    104  CG1 VAL     4      59.559  38.128  50.867  1.00  0.00     0.002 C 
ENDBRANCH  39 102
ENDBRANCH  36  39
ENDBRANCH  23  35
ENDBRANCH  20  23
ENDBRANCH  18  19
BRANCH  18 105
ATOM    105  CB  ILE     2      63.827  45.812  49.477  1.00  0.00     0.029 C 
ATOM    106  CG2 ILE     2      63.108  46.150  50.797  1.00  0.00     0.002 C 
BRANCH 105 107
ATOM    107  CG1 ILE     2      64.993  46.768  49.166  1.00  0.00     0.002 C 
ATOM    108  CD  ILE     2      66.255  46.545  50.012  1.00  0.00     0.000 C 
ENDBRANCH 105 107
ENDBRANCH  18 105
ENDBRANCH  16  18
ENDBRANCH   5  14
ENDBRANCH   1   5
TORSDOF 38
ENDMDL
MODEL 4
REMARK VINA RESULT:      -4.1      2.658      9.405
REMARK WARNING: 32 MAX_TORS EXCEEDED!!!
REMARK  38 active torsions:
REMARK  status: ('A' for Active; 'I' for Inactive)
REMARK    1  A    between atoms: N_1  and  CA_2 
REMARK    2  A    between atoms: CA_2  and  CB_5 
REMARK    3  A    between atoms: CA_2  and  C_3 
REMARK       I    between atoms: C_3  and  N_16 
REMARK    4  A    between atoms: CB_5  and  CG_6 
REMARK    5  A    between atoms: CG_6  and  CD_7 
REMARK    6  A    between atoms: CD_7  and  CE_8 
REMARK    7  A    between atoms: CE_8  and  NZ_9 
REMARK    8  A    between atoms: N_16  and  CA_17 
REMARK    9  A    between atoms: CA_17  and  C_18 
REMARK   10  A    between atoms: CA_17  and  CB_20 
REMARK       I    between atoms: C_18  and  N_25 
REMARK   11  A    between atoms: CB_20  and  CG1_21 
REMARK   12  A    between atoms: N_25  and  CA_26 
REMARK   13  A    between atoms: CA_26  and  CB_29 
REMARK   14  A    between atoms: CA_26  and  C_27 
REMARK       I    between atoms: C_27  and  N_41 
REMARK   15  A    between atoms: CB_29  and  CG_30 
REMARK   16  A    between atoms: N_41  and  CA_42 
REMARK   17  A    between atoms: CA_42  and  C_43 
REMARK   18  A    between atoms: CA_42  and  CB_45 
REMARK       I    between atoms: C_43  and  N_49 
REMARK   19  A    between atoms: N_49  and  CA_50 
REMARK   20  A    between atoms: CA_50  and  CB_53 
REMARK   21  A    between atoms: CA_50  and  C_51 
REMARK       I    between atoms: C_51  and  N_58 
REMARK   22  A    between atoms: CB_53  and  CG1_54 
REMARK   23  A    between atoms: N_58  and  CA_59 
REMARK   24  A    between atoms: CA_59  and  C_60 
REMARK   25  A    between atoms: CA_59  and  CB_62 
REMARK       I    between atoms: C_60  and  N_75 
REMARK   26  A    between atoms: CB_62  and  CG_63 
REMARK   27  A    between atoms: CG_63  and  CD_64 
REMARK   28  A    between atoms: CD_64  and  NE_65 
REMARK       I    between atoms: NE_65  and  CZ_66 
REMARK       I    between atoms: CZ_66  and  NH1_67 
REMARK       I    between atoms: CZ_66  and  NH2_68 
REMARK   29  A    between atoms: N_75  and  CA_76 
REMARK   30  A    between atoms: CA_76  and  CB_79 
REMARK   31  A    between atoms: CA_76  and  C_77 
REMARK       I    between atoms: C_77  and  N_91 
REMARK   32  A    between atoms: CB_79  and  CG_80 
REMARK   33  A    between atoms: N_91  and  CA_92 
REMARK   34  A    between atoms: CA_92  and  C_93 
REMARK   35  A    between atoms: CA_92  and  CB_95 
REMARK   36  A    between atoms: CB_95  and  CG_96 
REMARK   37  A    between atoms: CG_96  and  CD_97 
REMARK   38  A    between atoms: CD_97  and  NE_98 
REMARK       I    between atoms: NE_98  and  CZ_99 
REMARK       I    between atoms: CZ_99  and  NH1_100 
ROOT
ATOM      1  N   LYS     1      59.134  44.117  47.341  1.00  0.00    -0.058 N 
ATOM      2  H1  LYS     1      59.978  43.681  47.022  1.00 99.99     0.276 HD
ATOM      3  H2  LYS     1      59.061  44.996  46.909  1.00 99.99     0.276 HD
ATOM      4  H3  LYS     1      59.207  44.298  48.308  1.00 99.99     0.276 HD
ENDROOT
BRANCH   1   5
ATOM      5  CA  LYS     1      58.012  43.218  46.990  1.00  0.00     0.255 C 
BRANCH   5   6
ATOM      6  CB  LYS     1      58.429  41.734  46.977  1.00  0.00     0.040 C 
BRANCH   6   7
ATOM      7  CG  LYS     1      58.029  40.918  45.739  1.00  0.00     0.004 C 
BRANCH   7   8
ATOM      8  CD  LYS     1      57.414  39.574  46.160  1.00  0.00     0.032 C 
BRANCH   8   9
ATOM      9  CE  LYS     1      56.280  39.130  45.228  1.00  0.00     0.206 C 
BRANCH   9  10
ATOM     10  NZ  LYS     1      55.623  40.274  44.567  1.00  0.00    -0.064 N 
ATOM     11  HZ1 LYS     1      55.831  40.260  43.589  1.00 99.99     0.275 HD
ATOM     12  HZ2 LYS     1      54.633  40.217  44.691  1.00 99.99     0.275 HD
ATOM     13  HZ3 LYS     1      55.957  41.132  44.960  1.00 99.99     0.275 HD
ENDBRANCH   9  10
ENDBRANCH   8   9
ENDBRANCH   7   8
ENDBRANCH   6   7
ENDBRANCH   5   6
BRANCH   5  14
ATOM     14  C   LYS     1      56.915  43.380  48.066  1.00  0.00     0.259 C 
ATOM     15  O   LYS     1      56.074  44.274  47.954  1.00  0.00    -0.271 OA
ATOM     16  N   ILE     2      56.847  42.449  49.012  1.00  0.00    -0.338 N 
ATOM     17  H   ILE     2      57.473  41.672  49.066  1.00 99.99     0.164 HD
BRANCH  16  18
ATOM     18  CA  ILE     2      55.873  42.512  50.119  1.00  0.00     0.159 C 
BRANCH  18  19
ATOM     19  C   ILE     2      56.634  42.560  51.457  1.00  0.00     0.251 C 
ATOM     20  N   TRP     3      57.289  41.455  51.793  1.00  0.00    -0.337 N 
ATOM     21  H   TRP     3      57.186  40.591  51.301  1.00 99.99     0.164 HD
ATOM     22  O   ILE     2      56.521  43.536  52.197  1.00  0.00    -0.271 OA
BRANCH  20  23
ATOM     23  CA  TRP     3      58.224  41.409  52.929  1.00  0.00     0.164 C 
BRANCH  23  24
ATOM     24  CB  TRP     3      58.381  39.965  53.422  1.00  0.00     0.059 C 
BRANCH  24  25
ATOM     25  CG  TRP     3      58.581  39.893  54.938  1.00  0.00    -0.016 A 
ATOM     26  CD2 TRP     3      57.609  40.026  55.915  1.00  0.00    -0.001 A 
ATOM     27  CE2 TRP     3      58.262  39.932  57.135  1.00  0.00     0.042 A 
ATOM     28  CE3 TRP     3      56.242  40.255  55.859  1.00  0.00     0.014 A 
ATOM     29  NE1 TRP     3      59.557  39.744  56.878  1.00  0.00    -0.365 N 
ATOM     30  CZ2 TRP     3      57.539  40.075  58.313  1.00  0.00     0.030 A 
ATOM     31  HE1 TRP     3      60.274  39.622  57.562  1.00 99.99     0.165 HD
ATOM     32  CD1 TRP     3      59.744  39.721  55.558  1.00  0.00     0.097 A 
ATOM     33  CH2 TRP     3      56.171  40.318  58.263  1.00  0.00     0.002 A 
ATOM     34  CZ3 TRP     3      55.522  40.403  57.036  1.00  0.00     0.001 A 
ENDBRANCH  24  25
ENDBRANCH  23  24
BRANCH  23  35
ATOM     35  C   TRP     3      59.561  42.016  52.492  1.00  0.00     0.251 C 
ATOM     36  N   VAL     4      60.323  41.192  51.785  1.00  0.00    -0.338 N 
ATOM     37  H   VAL     4      60.013  40.274  51.539  1.00 99.99     0.164 HD
ATOM     38  O   TRP     3      59.898  43.150  52.832  1.00  0.00    -0.271 OA
BRANCH  36  39
ATOM     39  CA  VAL     4      61.669  41.546  51.294  1.00  0.00     0.159 C 
BRANCH  39  40
ATOM     40  C   VAL     4      61.471  42.457  50.073  1.00  0.00     0.251 C 
ATOM     41  N   ILE     5      62.510  43.232  49.761  1.00  0.00    -0.338 N 
ATOM     42  H   ILE     5      63.338  43.247  50.320  1.00 99.99     0.164 HD
ATOM     43  O   VAL     4      60.376  42.513  49.511  1.00  0.00    -0.271 OA
BRANCH  41  44
ATOM     44  CA  ILE     5      62.520  44.162  48.605  1.00  0.00     0.159 C 
BRANCH  44  45
ATOM     45  CB  ILE     5      63.302  45.455  48.943  1.00  0.00     0.029 C 
ATOM     46  CG2 ILE     5      62.340  46.492  49.551  1.00  0.00     0.002 C 
BRANCH  45  47
ATOM     47  CG1 ILE     5      64.451  45.182  49.931  1.00  0.00     0.002 C 
ATOM     48  CD  ILE     5      65.859  45.333  49.335  1.00  0.00     0.000 C 
ENDBRANCH  45  47
ENDBRANCH  44  45
BRANCH  44  49
ATOM     49  C   ILE     5      63.055  43.440  47.343  1.00  0.00     0.251 C 
ATOM     50  O   ILE     5      64.252  43.399  47.068  1.00  0.00    -0.271 OA
ATOM     51  N   ARG     6      62.107  42.758  46.702  1.00  0.00    -0.338 N 
ATOM     52  H   ARG     6      61.201  42.708  47.132  1.00 99.99     0.164 HD
BRANCH  51  53
ATOM     53  CA  ARG     6      62.214  41.940  45.472  1.00  0.00     0.159 C 
BRANCH  53  54
ATOM     54  C   ARG     6      61.075  42.368  44.515  1.00  0.00     0.251 C 
ATOM     55  N   TRP     7      60.841  41.497  43.535  1.00  0.00    -0.337 N 
ATOM     56  H   TRP     7      61.280  40.604  43.519  1.00 99.99     0.164 HD
ATOM     57  O   ARG     6      60.539  43.477  44.555  1.00  0.00    -0.271 OA
BRANCH  55  58
ATOM     58  CA  TRP     7      59.872  41.701  42.444  1.00  0.00     0.164 C 
BRANCH  58  59
ATOM     59  CB  TRP     7      60.683  42.164  41.224  1.00  0.00     0.059 C 
BRANCH  59  60
ATOM     60  CG  TRP     7      59.829  42.879  40.177  1.00  0.00    -0.016 A 
ATOM     61  CD1 TRP     7      59.585  44.187  40.163  1.00  0.00     0.097 A 
ATOM     62  NE1 TRP     7      59.129  44.546  38.965  1.00  0.00    -0.365 N 
ATOM     63  CE2 TRP     7      59.010  43.459  38.204  1.00  0.00     0.042 A 
ATOM     64  HE1 TRP     7      59.062  45.487  38.635  1.00 99.99     0.165 HD
ATOM     65  CZ2 TRP     7      58.588  43.278  36.895  1.00  0.00     0.030 A 
ATOM     66  CD2 TRP     7      59.438  42.371  38.949  1.00  0.00    -0.001 A 
ATOM     67  CH2 TRP     7      58.594  42.007  36.335  1.00  0.00     0.002 A 
ATOM     68  CZ3 TRP     7      59.012  40.915  37.089  1.00  0.00     0.001 A 
ATOM     69  CE3 TRP     7      59.439  41.097  38.398  1.00  0.00     0.014 A 
ENDBRANCH  59  60
ENDBRANCH  58  59
BRANCH  58  70
ATOM     70  C   TRP     7      59.019  40.447  42.168  1.00  0.00     0.251 C 
ATOM     71  O   TRP     7      57.795  40.454  42.300  1.00  0.00    -0.271 OA
ATOM     72  N   ARG     8      59.702  39.437  41.635  1.00  0.00    -0.336 N 
ATOM     73  H   ARG     8      60.679  39.531  41.451  1.00 99.99     0.164 HD
BRANCH  72  74
ATOM     74  CA  ARG     8      59.139  38.100  41.326  1.00  0.00     0.168 C 
BRANCH  74  75
ATOM     75  C   ARG     8      60.239  37.032  41.465  1.00  0.00     0.206 C 
ATOM     76  O   ARG     8      59.926  35.835  41.296  1.00 99.99    -0.646 OA
ATOM     77  OXT ARG     8      61.336  37.442  41.907  1.00 99.99    -0.646 OA
ENDBRANCH  74  75
BRANCH  74  78
ATOM     78  CB  ARG     8      58.647  38.043  39.876  1.00  0.00     0.035 C 
BRANCH  78  79
ATOM     79  CG  ARG     8      57.214  37.535  39.718  1.00  0.00     0.027 C 
BRANCH  79  80
ATOM     80  CD  ARG     8      56.251  38.704  39.897  1.00  0.00     0.116 C 
BRANCH  80  81
ATOM     81  NE  ARG     8      55.581  38.588  41.202  1.00  0.00    -0.212 N 
ATOM     82  CZ  ARG     8      54.415  37.980  41.429  1.00  0.00     0.666 C 
ATOM     83  NH1 ARG     8      53.726  37.404  40.451  1.00  0.00    -0.235 N 
ATOM     84  NH2 ARG     8      53.924  37.920  42.658  1.00  0.00    -0.235 N 
ATOM     85 1HH1 ARG     8      52.856  36.954  40.637  1.00 99.99     0.174 HD
ATOM     86 2HH1 ARG     8      54.097  37.429  39.524  1.00 99.99     0.174 HD
ATOM     87 1HH2 ARG     8      53.052  37.463  42.815  1.00 99.99     0.174 HD
ATOM     88 2HH2 ARG     8      54.416  38.332  43.422  1.00 99.99     0.174 HD
ATOM     89  HE  ARG     8      56.050  39.037  41.961  1.00 99.99     0.178 HD
ENDBRANCH  80  81
ENDBRANCH  79  80
ENDBRANCH  78  79
ENDBRANCH  74  78
ENDBRANCH  72  74
ENDBRANCH  58  70
ENDBRANCH  55  58
ENDBRANCH  53  54
BRANCH  53  90
ATOM     90  CB  ARG     6      62.114  40.451  45.835  1.00  0.00     0.034 C 
BRANCH  90  91
ATOM     91  CG  ARG     6      62.333  40.196  47.325  1.00  0.00     0.027 C 
BRANCH  91  92
ATOM     92  CD  ARG     6      63.514  39.247  47.506  1.00  0.00     0.116 C 
BRANCH  92  93
ATOM     93  NE  ARG     6      64.548  39.561  46.506  1.00  0.00    -0.212 N 
ATOM     94  HE  ARG     6      64.360  39.228  45.586  1.00 99.99     0.178 HD
ATOM     95  CZ  ARG     6      65.656  40.272  46.725  1.00  0.00     0.666 C 
ATOM     96  NH1 ARG     6      65.915  40.817  47.907  1.00  0.00    -0.235 N 
ATOM     97  NH2 ARG     6      66.576  40.379  45.777  1.00  0.00    -0.235 N 
ATOM     98 2HH1 ARG     6      65.255  40.695  48.645  1.00 99.99     0.174 HD
ATOM     99 1HH1 ARG     6      66.749  41.344  48.053  1.00 99.99     0.174 HD
ATOM    100 1HH2 ARG     6      67.401  40.913  45.955  1.00 99.99     0.174 HD
ATOM    101 2HH2 ARG     6      66.450  39.931  44.895  1.00 99.99     0.174 HD
ENDBRANCH  92  93
ENDBRANCH  91  92
ENDBRANCH  90  91
ENDBRANCH  53  90
ENDBRANCH  51  53
ENDBRANCH  44  49
ENDBRANCH  41  44
ENDBRANCH  39  40
BRANCH  39 102
ATOM    102  CB  VAL     4      62.460  40.271  50.929  1.00  0.00     0.029 C 
ATOM    103  CG2 VAL     4      61.549  39.041  50.817  1.00  0.00     0.002 C 
ATOM    104  CG1 VAL     4      63.566  39.967  51.947  1.00  0.00     0.002 C 
ENDBRANCH  39 102
ENDBRANCH  36  39
ENDBRANCH  23  35
ENDBRANCH  20  23
ENDBRANCH  18  19
BRANCH  18 105
ATOM    105  CB  ILE     2      54.879  41.328  50.004  1.00  0.00     0.029 C 
ATOM    106  CG2 ILE     2      53.446  41.796  49.685  1.00  0.00     0.002 C 
BRANCH 105 107
ATOM    107  CG1 ILE     2      55.396  40.262  49.020  1.00  0.00     0.002 C 
ATOM    108  CD  ILE     2      55.906  38.970  49.675  1.00  0.00     0.000 C 
ENDBRANCH 105 107
ENDBRANCH  18 105
ENDBRANCH  16  18
ENDBRANCH   5  14
ENDBRANCH   1   5
TORSDOF 38
ENDMDL
MODEL 5
REMARK VINA RESULT:      -4.0      2.424      9.064
REMARK WARNING: 32 MAX_TORS EXCEEDED!!!
REMARK  38 active torsions:
REMARK  status: ('A' for Active; 'I' for Inactive)
REMARK    1  A    between atoms: N_1  and  CA_2 
REMARK    2  A    between atoms: CA_2  and  CB_5 
REMARK    3  A    between atoms: CA_2  and  C_3 
REMARK       I    between atoms: C_3  and  N_16 
REMARK    4  A    between atoms: CB_5  and  CG_6 
REMARK    5  A    between atoms: CG_6  and  CD_7 
REMARK    6  A    between atoms: CD_7  and  CE_8 
REMARK    7  A    between atoms: CE_8  and  NZ_9 
REMARK    8  A    between atoms: N_16  and  CA_17 
REMARK    9  A    between atoms: CA_17  and  C_18 
REMARK   10  A    between atoms: CA_17  and  CB_20 
REMARK       I    between atoms: C_18  and  N_25 
REMARK   11  A    between atoms: CB_20  and  CG1_21 
REMARK   12  A    between atoms: N_25  and  CA_26 
REMARK   13  A    between atoms: CA_26  and  CB_29 
REMARK   14  A    between atoms: CA_26  and  C_27 
REMARK       I    between atoms: C_27  and  N_41 
REMARK   15  A    between atoms: CB_29  and  CG_30 
REMARK   16  A    between atoms: N_41  and  CA_42 
REMARK   17  A    between atoms: CA_42  and  C_43 
REMARK   18  A    between atoms: CA_42  and  CB_45 
REMARK       I    between atoms: C_43  and  N_49 
REMARK   19  A    between atoms: N_49  and  CA_50 
REMARK   20  A    between atoms: CA_50  and  CB_53 
REMARK   21  A    between atoms: CA_50  and  C_51 
REMARK       I    between atoms: C_51  and  N_58 
REMARK   22  A    between atoms: CB_53  and  CG1_54 
REMARK   23  A    between atoms: N_58  and  CA_59 
REMARK   24  A    between atoms: CA_59  and  C_60 
REMARK   25  A    between atoms: CA_59  and  CB_62 
REMARK       I    between atoms: C_60  and  N_75 
REMARK   26  A    between atoms: CB_62  and  CG_63 
REMARK   27  A    between atoms: CG_63  and  CD_64 
REMARK   28  A    between atoms: CD_64  and  NE_65 
REMARK       I    between atoms: NE_65  and  CZ_66 
REMARK       I    between atoms: CZ_66  and  NH1_67 
REMARK       I    between atoms: CZ_66  and  NH2_68 
REMARK   29  A    between atoms: N_75  and  CA_76 
REMARK   30  A    between atoms: CA_76  and  CB_79 
REMARK   31  A    between atoms: CA_76  and  C_77 
REMARK       I    between atoms: C_77  and  N_91 
REMARK   32  A    between atoms: CB_79  and  CG_80 
REMARK   33  A    between atoms: N_91  and  CA_92 
REMARK   34  A    between atoms: CA_92  and  C_93 
REMARK   35  A    between atoms: CA_92  and  CB_95 
REMARK   36  A    between atoms: CB_95  and  CG_96 
REMARK   37  A    between atoms: CG_96  and  CD_97 
REMARK   38  A    between atoms: CD_97  and  NE_98 
REMARK       I    between atoms: NE_98  and  CZ_99 
REMARK       I    between atoms: CZ_99  and  NH1_100 
ROOT
ATOM      1  N   LYS     1      57.360  43.227  48.103  1.00  0.00    -0.058 N 
ATOM      2  H1  LYS     1      57.825  43.799  48.782  1.00 99.99     0.276 HD
ATOM      3  H2  LYS     1      57.982  42.522  47.820  1.00 99.99     0.276 HD
ATOM      4  H3  LYS     1      57.179  43.765  47.296  1.00 99.99     0.276 HD
ENDROOT
BRANCH   1   5
ATOM      5  CA  LYS     1      56.140  42.687  48.742  1.00  0.00     0.255 C 
BRANCH   5   6
ATOM      6  CB  LYS     1      55.971  41.174  48.504  1.00  0.00     0.040 C 
BRANCH   6   7
ATOM      7  CG  LYS     1      54.534  40.662  48.326  1.00  0.00     0.004 C 
BRANCH   7   8
ATOM      8  CD  LYS     1      53.949  40.226  49.678  1.00  0.00     0.032 C 
BRANCH   8   9
ATOM      9  CE  LYS     1      52.532  40.765  49.907  1.00  0.00     0.206 C 
BRANCH   9  10
ATOM     10  NZ  LYS     1      51.851  40.082  51.023  1.00  0.00    -0.064 N 
ATOM     11  HZ1 LYS     1      50.860  40.149  50.903  1.00 99.99     0.275 HD
ATOM     12  HZ2 LYS     1      52.112  39.116  51.041  1.00 99.99     0.275 HD
ATOM     13  HZ3 LYS     1      52.104  40.510  51.890  1.00 99.99     0.275 HD
ENDBRANCH   9  10
ENDBRANCH   8   9
ENDBRANCH   7   8
ENDBRANCH   6   7
ENDBRANCH   5   6
BRANCH   5  14
ATOM     14  C   LYS     1      56.264  42.904  50.267  1.00  0.00     0.259 C 
ATOM     15  O   LYS     1      55.698  43.861  50.799  1.00  0.00    -0.271 OA
ATOM     16  N   ILE     2      56.877  41.957  50.970  1.00  0.00    -0.338 N 
ATOM     17  H   ILE     2      57.269  41.134  50.559  1.00 99.99     0.164 HD
BRANCH  16  18
ATOM     18  CA  ILE     2      57.098  42.065  52.425  1.00  0.00     0.159 C 
BRANCH  18  19
ATOM     19  C   ILE     2      58.560  42.473  52.684  1.00  0.00     0.251 C 
ATOM     20  N   TRP     3      59.485  41.735  52.082  1.00  0.00    -0.337 N 
ATOM     21  H   TRP     3      59.276  40.879  51.612  1.00 99.99     0.164 HD
ATOM     22  O   ILE     2      58.818  43.359  53.497  1.00  0.00    -0.271 OA
BRANCH  20  23
ATOM     23  CA  TRP     3      60.907  42.117  52.063  1.00  0.00     0.164 C 
BRANCH  23  24
ATOM     24  CB  TRP     3      61.788  40.870  52.203  1.00  0.00     0.059 C 
BRANCH  24  25
ATOM     25  CG  TRP     3      61.658  40.225  53.585  1.00  0.00    -0.016 A 
ATOM     26  CD2 TRP     3      62.251  40.648  54.762  1.00  0.00    -0.001 A 
ATOM     27  CE2 TRP     3      61.884  39.735  55.738  1.00  0.00     0.042 A 
ATOM     28  CE3 TRP     3      63.096  41.706  55.064  1.00  0.00     0.014 A 
ATOM     29  NE1 TRP     3      61.104  38.824  55.156  1.00  0.00    -0.365 N 
ATOM     30  CZ2 TRP     3      62.373  39.879  57.032  1.00  0.00     0.030 A 
ATOM     31  HE1 TRP     3      60.671  38.049  55.614  1.00 99.99     0.165 HD
ATOM     32  CD1 TRP     3      60.971  39.122  53.863  1.00  0.00     0.097 A 
ATOM     33  CH2 TRP     3      63.230  40.930  57.337  1.00  0.00     0.002 A 
ATOM     34  CZ3 TRP     3      63.588  41.847  56.354  1.00  0.00     0.001 A 
ENDBRANCH  24  25
ENDBRANCH  23  24
BRANCH  23  35
ATOM     35  C   TRP     3      61.194  42.881  50.766  1.00  0.00     0.251 C 
ATOM     36  N   VAL     4      62.262  43.666  50.827  1.00  0.00    -0.338 N 
ATOM     37  H   VAL     4      62.834  43.708  51.645  1.00 99.99     0.164 HD
ATOM     38  O   TRP     3      60.449  42.800  49.789  1.00  0.00    -0.271 OA
BRANCH  36  39
ATOM     39  CA  VAL     4      62.705  44.526  49.712  1.00  0.00     0.159 C 
BRANCH  39  40
ATOM     40  C   VAL     4      63.652  43.681  48.848  1.00  0.00     0.251 C 
ATOM     41  N   ILE     5      63.063  42.935  47.913  1.00  0.00    -0.338 N 
ATOM     42  H   ILE     5      62.068  42.898  47.824  1.00 99.99     0.164 HD
ATOM     43  O   VAL     4      64.857  43.646  49.099  1.00  0.00    -0.271 OA
BRANCH  41  44
ATOM     44  CA  ILE     5      63.808  42.069  46.966  1.00  0.00     0.159 C 
BRANCH  44  45
ATOM     45  CB  ILE     5      63.123  40.689  46.823  1.00  0.00     0.029 C 
ATOM     46  CG2 ILE     5      64.196  39.587  46.761  1.00  0.00     0.002 C 
BRANCH  45  47
ATOM     47  CG1 ILE     5      62.165  40.406  47.995  1.00  0.00     0.002 C 
ATOM     48  CD  ILE     5      62.562  39.209  48.873  1.00  0.00     0.000 C 
ENDBRANCH  45  47
ENDBRANCH  44  45
BRANCH  44  49
ATOM     49  C   ILE     5      63.997  42.798  45.612  1.00  0.00     0.251 C 
ATOM     50  O   ILE     5      64.903  43.606  45.423  1.00  0.00    -0.271 OA
ATOM     51  N   ARG     6      63.184  42.336  44.664  1.00  0.00    -0.338 N 
ATOM     52  H   ARG     6      62.619  41.537  44.886  1.00 99.99     0.164 HD
BRANCH  51  53
ATOM     53  CA  ARG     6      63.062  42.760  43.249  1.00  0.00     0.159 C 
BRANCH  53  54
ATOM     54  C   ARG     6      61.560  42.746  42.875  1.00  0.00     0.251 C 
ATOM     55  N   TRP     7      61.263  41.919  41.875  1.00  0.00    -0.337 N 
ATOM     56  H   TRP     7      61.938  41.286  41.507  1.00 99.99     0.164 HD
ATOM     57  O   ARG     6      60.738  43.533  43.347  1.00  0.00    -0.271 OA
BRANCH  55  58
ATOM     58  CA  TRP     7      59.927  41.778  41.270  1.00  0.00     0.164 C 
BRANCH  58  59
ATOM     59  CB  TRP     7      60.132  41.061  39.926  1.00  0.00     0.059 C 
BRANCH  59  60
ATOM     60  CG  TRP     7      60.259  42.027  38.748  1.00  0.00    -0.016 A 
ATOM     61  CD1 TRP     7      59.301  42.853  38.338  1.00  0.00     0.097 A 
ATOM     62  NE1 TRP     7      59.823  43.791  37.550  1.00  0.00    -0.365 N 
ATOM     63  CE2 TRP     7      61.121  43.544  37.387  1.00  0.00     0.042 A 
ATOM     64  HE1 TRP     7      59.361  44.634  37.278  1.00 99.99     0.165 HD
ATOM     65  CZ2 TRP     7      62.114  44.201  36.674  1.00  0.00     0.030 A 
ATOM     66  CD2 TRP     7      61.435  42.416  38.129  1.00  0.00    -0.001 A 
ATOM     67  CH2 TRP     7      63.419  43.726  36.705  1.00  0.00     0.002 A 
ATOM     68  CZ3 TRP     7      63.729  42.588  37.441  1.00  0.00     0.001 A 
ATOM     69  CE3 TRP     7      62.737  41.932  38.159  1.00  0.00     0.014 A 
ENDBRANCH  59  60
ENDBRANCH  58  59
BRANCH  58  70
ATOM     70  C   TRP     7      58.930  41.057  42.198  1.00  0.00     0.251 C 
ATOM     71  O   TRP     7      57.812  40.719  41.810  1.00  0.00    -0.271 OA
ATOM     72  N   ARG     8      59.444  40.708  43.374  1.00  0.00    -0.336 N 
ATOM     73  H   ARG     8      60.396  40.917  43.590  1.00 99.99     0.164 HD
BRANCH  72  74
ATOM     74  CA  ARG     8      58.689  40.056  44.472  1.00  0.00     0.168 C 
BRANCH  74  75
ATOM     75  C   ARG     8      58.439  41.071  45.602  1.00  0.00     0.206 C 
ATOM     76  O   ARG     8      57.827  42.124  45.325  1.00 99.99    -0.646 OA
ATOM     77  OXT ARG     8      59.023  40.831  46.683  1.00 99.99    -0.646 OA
ENDBRANCH  74  75
BRANCH  74  78
ATOM     78  CB  ARG     8      59.502  38.908  45.079  1.00  0.00     0.035 C 
BRANCH  78  79
ATOM     79  CG  ARG     8      58.743  37.585  45.181  1.00  0.00     0.027 C 
BRANCH  79  80
ATOM     80  CD  ARG     8      57.973  37.356  43.885  1.00  0.00     0.116 C 
BRANCH  80  81
ATOM     81  NE  ARG     8      56.547  37.159  44.194  1.00  0.00    -0.212 N 
ATOM     82  CZ  ARG     8      55.533  37.850  43.669  1.00  0.00     0.666 C 
ATOM     83  NH1 ARG     8      55.733  38.821  42.786  1.00  0.00    -0.235 N 
ATOM     84  NH2 ARG     8      54.285  37.562  44.009  1.00  0.00    -0.235 N 
ATOM     85 1HH1 ARG     8      54.964  39.328  42.404  1.00 99.99     0.174 HD
ATOM     86 2HH1 ARG     8      56.668  39.034  42.511  1.00 99.99     0.174 HD
ATOM     87 1HH2 ARG     8      53.536  38.087  43.610  1.00 99.99     0.174 HD
ATOM     88 2HH2 ARG     8      54.092  36.834  44.663  1.00 99.99     0.174 HD
ATOM     89  HE  ARG     8      56.354  36.460  44.880  1.00 99.99     0.178 HD
ENDBRANCH  80  81
ENDBRANCH  79  80
ENDBRANCH  78  79
ENDBRANCH  74  78
ENDBRANCH  72  74
ENDBRANCH  58  70
ENDBRANCH  55  58
ENDBRANCH  53  54
BRANCH  53  90
ATOM     90  CB  ARG     6      63.873  41.809  42.356  1.00  0.00     0.034 C 
BRANCH  90  91
ATOM     91  CG  ARG     6      64.469  40.639  43.137  1.00  0.00     0.027 C 
BRANCH  91  92
ATOM     92  CD  ARG     6      65.974  40.586  42.896  1.00  0.00     0.116 C 
BRANCH  92  93
ATOM     93  NE  ARG     6      66.600  41.791  43.464  1.00  0.00    -0.212 N 
ATOM     94  HE  ARG     6      66.315  42.651  43.047  1.00 99.99     0.178 HD
ATOM     95  CZ  ARG     6      67.457  41.819  44.486  1.00  0.00     0.666 C 
ATOM     96  NH1 ARG     6      67.804  40.715  45.137  1.00  0.00    -0.235 N 
ATOM     97  NH2 ARG     6      68.053  42.952  44.825  1.00  0.00    -0.235 N 
ATOM     98 2HH1 ARG     6      67.403  39.846  44.854  1.00 99.99     0.174 HD
ATOM     99 1HH1 ARG     6      68.446  40.754  45.899  1.00 99.99     0.174 HD
ATOM    100 1HH2 ARG     6      68.693  42.957  45.591  1.00 99.99     0.174 HD
ATOM    101 2HH2 ARG     6      67.869  43.793  44.320  1.00 99.99     0.174 HD
ENDBRANCH  92  93
ENDBRANCH  91  92
ENDBRANCH  90  91
ENDBRANCH  53  90
ENDBRANCH  51  53
ENDBRANCH  44  49
ENDBRANCH  41  44
ENDBRANCH  39  40
BRANCH  39 102
ATOM    102  CB  VAL     4      63.408  45.789  50.256  1.00  0.00     0.029 C 
ATOM    103  CG2 VAL     4      62.840  46.224  51.614  1.00  0.00     0.002 C 
ATOM    104  CG1 VAL     4      63.304  46.971  49.284  1.00  0.00     0.002 C 
ENDBRANCH  39 102
ENDBRANCH  36  39
ENDBRANCH  23  35
ENDBRANCH  20  23
ENDBRANCH  18  19
BRANCH  18 105
ATOM    105  CB  ILE     2      56.686  40.738  53.112  1.00  0.00     0.029 C 
ATOM    106  CG2 ILE     2      55.399  40.886  53.945  1.00  0.00     0.002 C 
BRANCH 105 107
ATOM    107  CG1 ILE     2      56.613  39.584  52.094  1.00  0.00     0.002 C 
ATOM    108  CD  ILE     2      57.309  38.288  52.534  1.00  0.00     0.000 C 
ENDBRANCH 105 107
ENDBRANCH  18 105
ENDBRANCH  16  18
ENDBRANCH   5  14
ENDBRANCH   1   5
TORSDOF 38
ENDMDL
MODEL 6
REMARK VINA RESULT:      -3.8      3.311      9.268
REMARK WARNING: 32 MAX_TORS EXCEEDED!!!
REMARK  38 active torsions:
REMARK  status: ('A' for Active; 'I' for Inactive)
REMARK    1  A    between atoms: N_1  and  CA_2 
REMARK    2  A    between atoms: CA_2  and  CB_5 
REMARK    3  A    between atoms: CA_2  and  C_3 
REMARK       I    between atoms: C_3  and  N_16 
REMARK    4  A    between atoms: CB_5  and  CG_6 
REMARK    5  A    between atoms: CG_6  and  CD_7 
REMARK    6  A    between atoms: CD_7  and  CE_8 
REMARK    7  A    between atoms: CE_8  and  NZ_9 
REMARK    8  A    between atoms: N_16  and  CA_17 
REMARK    9  A    between atoms: CA_17  and  C_18 
REMARK   10  A    between atoms: CA_17  and  CB_20 
REMARK       I    between atoms: C_18  and  N_25 
REMARK   11  A    between atoms: CB_20  and  CG1_21 
REMARK   12  A    between atoms: N_25  and  CA_26 
REMARK   13  A    between atoms: CA_26  and  CB_29 
REMARK   14  A    between atoms: CA_26  and  C_27 
REMARK       I    between atoms: C_27  and  N_41 
REMARK   15  A    between atoms: CB_29  and  CG_30 
REMARK   16  A    between atoms: N_41  and  CA_42 
REMARK   17  A    between atoms: CA_42  and  C_43 
REMARK   18  A    between atoms: CA_42  and  CB_45 
REMARK       I    between atoms: C_43  and  N_49 
REMARK   19  A    between atoms: N_49  and  CA_50 
REMARK   20  A    between atoms: CA_50  and  CB_53 
REMARK   21  A    between atoms: CA_50  and  C_51 
REMARK       I    between atoms: C_51  and  N_58 
REMARK   22  A    between atoms: CB_53  and  CG1_54 
REMARK   23  A    between atoms: N_58  and  CA_59 
REMARK   24  A    between atoms: CA_59  and  C_60 
REMARK   25  A    between atoms: CA_59  and  CB_62 
REMARK       I    between atoms: C_60  and  N_75 
REMARK   26  A    between atoms: CB_62  and  CG_63 
REMARK   27  A    between atoms: CG_63  and  CD_64 
REMARK   28  A    between atoms: CD_64  and  NE_65 
REMARK       I    between atoms: NE_65  and  CZ_66 
REMARK       I    between atoms: CZ_66  and  NH1_67 
REMARK       I    between atoms: CZ_66  and  NH2_68 
REMARK   29  A    between atoms: N_75  and  CA_76 
REMARK   30  A    between atoms: CA_76  and  CB_79 
REMARK   31  A    between atoms: CA_76  and  C_77 
REMARK       I    between atoms: C_77  and  N_91 
REMARK   32  A    between atoms: CB_79  and  CG_80 
REMARK   33  A    between atoms: N_91  and  CA_92 
REMARK   34  A    between atoms: CA_92  and  C_93 
REMARK   35  A    between atoms: CA_92  and  CB_95 
REMARK   36  A    between atoms: CB_95  and  CG_96 
REMARK   37  A    between atoms: CG_96  and  CD_97 
REMARK   38  A    between atoms: CD_97  and  NE_98 
REMARK       I    between atoms: NE_98  and  CZ_99 
REMARK       I    between atoms: CZ_99  and  NH1_100 
ROOT
ATOM      1  N   LYS     1      59.821  42.034  51.953  1.00  0.00    -0.058 N 
ATOM      2  H1  LYS     1      60.703  41.580  52.096  1.00 99.99     0.276 HD
ATOM      3  H2  LYS     1      59.623  42.022  50.991  1.00 99.99     0.276 HD
ATOM      4  H3  LYS     1      59.902  42.986  52.198  1.00 99.99     0.276 HD
ENDROOT
BRANCH   1   5
ATOM      5  CA  LYS     1      58.813  41.301  52.750  1.00  0.00     0.255 C 
BRANCH   5   6
ATOM      6  CB  LYS     1      58.205  40.112  51.982  1.00  0.00     0.040 C 
BRANCH   6   7
ATOM      7  CG  LYS     1      59.047  39.530  50.837  1.00  0.00     0.004 C 
BRANCH   7   8
ATOM      8  CD  LYS     1      58.147  38.799  49.828  1.00  0.00     0.032 C 
BRANCH   8   9
ATOM      9  CE  LYS     1      58.647  37.384  49.513  1.00  0.00     0.206 C 
BRANCH   9  10
ATOM     10  NZ  LYS     1      58.364  36.438  50.609  1.00  0.00    -0.064 N 
ATOM     11  HZ1 LYS     1      58.100  35.552  50.227  1.00 99.99     0.275 HD
ATOM     12  HZ2 LYS     1      59.179  36.319  51.175  1.00 99.99     0.275 HD
ATOM     13  HZ3 LYS     1      57.615  36.785  51.174  1.00 99.99     0.275 HD
ENDBRANCH   9  10
ENDBRANCH   8   9
ENDBRANCH   7   8
ENDBRANCH   6   7
ENDBRANCH   5   6
BRANCH   5  14
ATOM     14  C   LYS     1      59.517  40.731  54.002  1.00  0.00     0.259 C 
ATOM     15  O   LYS     1      58.847  40.346  54.961  1.00  0.00    -0.271 OA
ATOM     16  N   ILE     2      60.833  40.557  53.935  1.00  0.00    -0.338 N 
ATOM     17  H   ILE     2      61.378  40.789  53.129  1.00 99.99     0.164 HD
BRANCH  16  18
ATOM     18  CA  ILE     2      61.628  40.061  55.075  1.00  0.00     0.159 C 
BRANCH  18  19
ATOM     19  C   ILE     2      62.891  40.930  55.224  1.00  0.00     0.251 C 
ATOM     20  N   TRP     3      63.966  40.314  55.700  1.00  0.00    -0.337 N 
ATOM     21  H   TRP     3      63.940  39.392  56.083  1.00 99.99     0.164 HD
ATOM     22  O   ILE     2      62.834  42.141  55.017  1.00  0.00    -0.271 OA
BRANCH  20  23
ATOM     23  CA  TRP     3      65.295  40.947  55.710  1.00  0.00     0.164 C 
BRANCH  23  24
ATOM     24  CB  TRP     3      65.946  40.783  57.088  1.00  0.00     0.059 C 
BRANCH  24  25
ATOM     25  CG  TRP     3      64.907  40.655  58.205  1.00  0.00    -0.016 A 
ATOM     26  CD2 TRP     3      64.427  41.668  59.017  1.00  0.00    -0.001 A 
ATOM     27  CE2 TRP     3      63.540  41.075  59.903  1.00  0.00     0.042 A 
ATOM     28  CE3 TRP     3      64.704  43.025  59.094  1.00  0.00     0.014 A 
ATOM     29  NE1 TRP     3      63.499  39.775  59.612  1.00  0.00    -0.365 N 
ATOM     30  CZ2 TRP     3      62.926  41.849  60.881  1.00  0.00     0.030 A 
ATOM     31  HE1 TRP     3      62.931  39.093  60.071  1.00 99.99     0.165 HD
ATOM     32  CD1 TRP     3      64.321  39.527  58.591  1.00  0.00     0.097 A 
ATOM     33  CH2 TRP     3      63.210  43.207  60.971  1.00  0.00     0.002 A 
ATOM     34  CZ3 TRP     3      64.095  43.796  60.074  1.00  0.00     0.001 A 
ENDBRANCH  24  25
ENDBRANCH  23  24
BRANCH  23  35
ATOM     35  C   TRP     3      66.145  40.326  54.595  1.00  0.00     0.251 C 
ATOM     36  N   VAL     4      65.491  39.454  53.840  1.00  0.00    -0.338 N 
ATOM     37  H   VAL     4      64.520  39.263  53.982  1.00 99.99     0.164 HD
ATOM     38  O   TRP     3      67.341  40.588  54.472  1.00  0.00    -0.271 OA
BRANCH  36  39
ATOM     39  CA  VAL     4      66.117  38.702  52.735  1.00  0.00     0.159 C 
BRANCH  39  40
ATOM     40  C   VAL     4      65.876  39.513  51.454  1.00  0.00     0.251 C 
ATOM     41  N   ILE     5      64.600  39.773  51.170  1.00  0.00    -0.338 N 
ATOM     42  H   ILE     5      63.856  39.417  51.734  1.00 99.99     0.164 HD
ATOM     43  O   VAL     4      66.818  39.796  50.712  1.00  0.00    -0.271 OA
BRANCH  41  44
ATOM     44  CA  ILE     5      64.166  40.560  49.990  1.00  0.00     0.159 C 
BRANCH  44  45
ATOM     45  CB  ILE     5      63.691  39.629  48.848  1.00  0.00     0.029 C 
ATOM     46  CG2 ILE     5      64.568  39.854  47.603  1.00  0.00     0.002 C 
BRANCH  45  47
ATOM     47  CG1 ILE     5      63.758  38.147  49.260  1.00  0.00     0.002 C 
ATOM     48  CD  ILE     5      62.393  37.485  49.502  1.00  0.00     0.000 C 
ENDBRANCH  45  47
ENDBRANCH  44  45
BRANCH  44  49
ATOM     49  C   ILE     5      63.101  41.605  50.406  1.00  0.00     0.251 C 
ATOM     50  O   ILE     5      62.711  41.718  51.566  1.00  0.00    -0.271 OA
ATOM     51  N   ARG     6      62.791  42.442  49.417  1.00  0.00    -0.338 N 
ATOM     52  H   ARG     6      63.321  42.373  48.567  1.00 99.99     0.164 HD
BRANCH  51  53
ATOM     53  CA  ARG     6      61.832  43.572  49.416  1.00  0.00     0.159 C 
BRANCH  53  54
ATOM     54  C   ARG     6      60.835  43.349  48.253  1.00  0.00     0.251 C 
ATOM     55  N   TRP     7      59.571  43.205  48.650  1.00  0.00    -0.337 N 
ATOM     56  H   TRP     7      59.304  43.361  49.595  1.00 99.99     0.164 HD
ATOM     57  O   ARG     6      61.186  43.165  47.087  1.00  0.00    -0.271 OA
BRANCH  55  58
ATOM     58  CA  TRP     7      58.441  42.898  47.756  1.00  0.00     0.164 C 
BRANCH  58  59
ATOM     59  CB  TRP     7      58.404  41.369  47.611  1.00  0.00     0.059 C 
BRANCH  59  60
ATOM     60  CG  TRP     7      58.802  40.893  46.214  1.00  0.00    -0.016 A 
ATOM     61  CD1 TRP     7      58.489  41.519  45.083  1.00  0.00     0.097 A 
ATOM     62  NE1 TRP     7      59.262  41.072  44.094  1.00  0.00    -0.365 N 
ATOM     63  CE2 TRP     7      60.043  40.101  44.562  1.00  0.00     0.042 A 
ATOM     64  HE1 TRP     7      59.365  41.513  43.203  1.00 99.99     0.165 HD
ATOM     65  CZ2 TRP     7      61.015  39.313  43.961  1.00  0.00     0.030 A 
ATOM     66  CD2 TRP     7      59.770  39.949  45.912  1.00  0.00    -0.001 A 
ATOM     67  CH2 TRP     7      61.709  38.375  44.714  1.00  0.00     0.002 A 
ATOM     68  CZ3 TRP     7      61.425  38.217  46.066  1.00  0.00     0.001 A 
ATOM     69  CE3 TRP     7      60.455  39.008  46.669  1.00  0.00     0.014 A 
ENDBRANCH  59  60
ENDBRANCH  58  59
BRANCH  58  70
ATOM     70  C   TRP     7      57.111  43.494  48.259  1.00  0.00     0.251 C 
ATOM     71  O   TRP     7      56.708  44.592  47.878  1.00  0.00    -0.271 OA
ATOM     72  N   ARG     8      56.390  42.655  48.998  1.00  0.00    -0.336 N 
ATOM     73  H   ARG     8      56.725  41.732  49.184  1.00 99.99     0.164 HD
BRANCH  72  74
ATOM     74  CA  ARG     8      55.102  42.990  49.653  1.00  0.00     0.168 C 
BRANCH  74  75
ATOM     75  C   ARG     8      55.333  43.228  51.156  1.00  0.00     0.206 C 
ATOM     76  O   ARG     8      55.450  42.233  51.901  1.00 99.99    -0.646 OA
ATOM     77  OXT ARG     8      55.216  44.414  51.539  1.00 99.99    -0.646 OA
ENDBRANCH  74  75
BRANCH  74  78
ATOM     78  CB  ARG     8      54.116  41.824  49.535  1.00  0.00     0.035 C 
BRANCH  78  79
ATOM     79  CG  ARG     8      54.689  40.584  48.848  1.00  0.00     0.027 C 
BRANCH  79  80
ATOM     80  CD  ARG     8      54.386  39.359  49.705  1.00  0.00     0.116 C 
BRANCH  80  81
ATOM     81  NE  ARG     8      53.953  39.796  51.043  1.00  0.00    -0.212 N 
ATOM     82  CZ  ARG     8      54.304  39.230  52.199  1.00  0.00     0.666 C 
ATOM     83  NH1 ARG     8      55.108  38.174  52.245  1.00  0.00    -0.235 N 
ATOM     84  NH2 ARG     8      53.866  39.731  53.345  1.00  0.00    -0.235 N 
ATOM     85 1HH1 ARG     8      55.360  37.764  53.117  1.00 99.99     0.174 HD
ATOM     86 2HH1 ARG     8      55.456  37.800  51.388  1.00 99.99     0.174 HD
ATOM     87 1HH2 ARG     8      54.135  39.299  54.203  1.00 99.99     0.174 HD
ATOM     88 2HH2 ARG     8      53.267  40.530  53.354  1.00 99.99     0.174 HD
ATOM     89  HE  ARG     8      53.319  40.567  51.052  1.00 99.99     0.178 HD
ENDBRANCH  80  81
ENDBRANCH  79  80
ENDBRANCH  78  79
ENDBRANCH  74  78
ENDBRANCH  72  74
ENDBRANCH  58  70
ENDBRANCH  55  58
ENDBRANCH  53  54
BRANCH  53  90
ATOM     90  CB  ARG     6      62.598  44.895  49.254  1.00  0.00     0.034 C 
BRANCH  90  91
ATOM     91  CG  ARG     6      63.357  45.289  50.520  1.00  0.00     0.027 C 
BRANCH  91  92
ATOM     92  CD  ARG     6      64.745  45.794  50.138  1.00  0.00     0.116 C 
BRANCH  92  93
ATOM     93  NE  ARG     6      65.561  44.663  49.668  1.00  0.00    -0.212 N 
ATOM     94  HE  ARG     6      65.599  43.884  50.289  1.00 99.99     0.178 HD
ATOM     95  CZ  ARG     6      66.195  44.591  48.496  1.00  0.00     0.666 C 
ATOM     96  NH1 ARG     6      66.107  45.560  47.593  1.00  0.00    -0.235 N 
ATOM     97  NH2 ARG     6      67.006  43.574  48.239  1.00  0.00    -0.235 N 
ATOM     98 2HH1 ARG     6      65.544  46.357  47.799  1.00 99.99     0.174 HD
ATOM     99 1HH1 ARG     6      66.589  45.489  46.722  1.00 99.99     0.174 HD
ATOM    100 1HH2 ARG     6      67.475  43.534  47.359  1.00 99.99     0.174 HD
ATOM    101 2HH2 ARG     6      67.150  42.857  48.917  1.00 99.99     0.174 HD
ENDBRANCH  92  93
ENDBRANCH  91  92
ENDBRANCH  90  91
ENDBRANCH  53  90
ENDBRANCH  51  53
ENDBRANCH  44  49
ENDBRANCH  41  44
ENDBRANCH  39  40
BRANCH  39 102
ATOM    102  CB  VAL     4      65.507  37.287  52.635  1.00  0.00     0.029 C 
ATOM    103  CG2 VAL     4      65.251  36.671  54.018  1.00  0.00     0.002 C 
ATOM    104  CG1 VAL     4      66.398  36.329  51.833  1.00  0.00     0.002 C 
ENDBRANCH  39 102
ENDBRANCH  36  39
ENDBRANCH  23  35
ENDBRANCH  20  23
ENDBRANCH  18  19
BRANCH  18 105
ATOM    105  CB  ILE     2      61.924  38.551  54.884  1.00  0.00     0.029 C 
ATOM    106  CG2 ILE     2      61.178  37.676  55.909  1.00  0.00     0.002 C 
BRANCH 105 107
ATOM    107  CG1 ILE     2      61.676  38.116  53.428  1.00  0.00     0.002 C 
ATOM    108  CD  ILE     2      60.720  36.925  53.262  1.00  0.00     0.000 C 
ENDBRANCH 105 107
ENDBRANCH  18 105
ENDBRANCH  16  18
ENDBRANCH   5  14
ENDBRANCH   1   5
TORSDOF 38
ENDMDL
MODEL 7
REMARK VINA RESULT:      -3.8      2.884     10.012
REMARK WARNING: 32 MAX_TORS EXCEEDED!!!
REMARK  38 active torsions:
REMARK  status: ('A' for Active; 'I' for Inactive)
REMARK    1  A    between atoms: N_1  and  CA_2 
REMARK    2  A    between atoms: CA_2  and  CB_5 
REMARK    3  A    between atoms: CA_2  and  C_3 
REMARK       I    between atoms: C_3  and  N_16 
REMARK    4  A    between atoms: CB_5  and  CG_6 
REMARK    5  A    between atoms: CG_6  and  CD_7 
REMARK    6  A    between atoms: CD_7  and  CE_8 
REMARK    7  A    between atoms: CE_8  and  NZ_9 
REMARK    8  A    between atoms: N_16  and  CA_17 
REMARK    9  A    between atoms: CA_17  and  C_18 
REMARK   10  A    between atoms: CA_17  and  CB_20 
REMARK       I    between atoms: C_18  and  N_25 
REMARK   11  A    between atoms: CB_20  and  CG1_21 
REMARK   12  A    between atoms: N_25  and  CA_26 
REMARK   13  A    between atoms: CA_26  and  CB_29 
REMARK   14  A    between atoms: CA_26  and  C_27 
REMARK       I    between atoms: C_27  and  N_41 
REMARK   15  A    between atoms: CB_29  and  CG_30 
REMARK   16  A    between atoms: N_41  and  CA_42 
REMARK   17  A    between atoms: CA_42  and  C_43 
REMARK   18  A    between atoms: CA_42  and  CB_45 
REMARK       I    between atoms: C_43  and  N_49 
REMARK   19  A    between atoms: N_49  and  CA_50 
REMARK   20  A    between atoms: CA_50  and  CB_53 
REMARK   21  A    between atoms: CA_50  and  C_51 
REMARK       I    between atoms: C_51  and  N_58 
REMARK   22  A    between atoms: CB_53  and  CG1_54 
REMARK   23  A    between atoms: N_58  and  CA_59 
REMARK   24  A    between atoms: CA_59  and  C_60 
REMARK   25  A    between atoms: CA_59  and  CB_62 
REMARK       I    between atoms: C_60  and  N_75 
REMARK   26  A    between atoms: CB_62  and  CG_63 
REMARK   27  A    between atoms: CG_63  and  CD_64 
REMARK   28  A    between atoms: CD_64  and  NE_65 
REMARK       I    between atoms: NE_65  and  CZ_66 
REMARK       I    between atoms: CZ_66  and  NH1_67 
REMARK       I    between atoms: CZ_66  and  NH2_68 
REMARK   29  A    between atoms: N_75  and  CA_76 
REMARK   30  A    between atoms: CA_76  and  CB_79 
REMARK   31  A    between atoms: CA_76  and  C_77 
REMARK       I    between atoms: C_77  and  N_91 
REMARK   32  A    between atoms: CB_79  and  CG_80 
REMARK   33  A    between atoms: N_91  and  CA_92 
REMARK   34  A    between atoms: CA_92  and  C_93 
REMARK   35  A    between atoms: CA_92  and  CB_95 
REMARK   36  A    between atoms: CB_95  and  CG_96 
REMARK   37  A    between atoms: CG_96  and  CD_97 
REMARK   38  A    between atoms: CD_97  and  NE_98 
REMARK       I    between atoms: NE_98  and  CZ_99 
REMARK       I    between atoms: CZ_99  and  NH1_100 
ROOT
ATOM      1  N   LYS     1      66.070  43.536  49.407  1.00  0.00    -0.058 N 
ATOM      2  H1  LYS     1      66.790  44.116  49.795  1.00 99.99     0.276 HD
ATOM      3  H2  LYS     1      65.853  42.838  50.063  1.00 99.99     0.276 HD
ATOM      4  H3  LYS     1      66.424  43.062  48.618  1.00 99.99     0.276 HD
ENDROOT
BRANCH   1   5
ATOM      5  CA  LYS     1      64.915  44.409  49.104  1.00  0.00     0.255 C 
BRANCH   5   6
ATOM      6  CB  LYS     1      64.837  44.788  47.612  1.00  0.00     0.040 C 
BRANCH   6   7
ATOM      7  CG  LYS     1      66.096  44.529  46.771  1.00  0.00     0.004 C 
BRANCH   7   8
ATOM      8  CD  LYS     1      65.842  43.399  45.762  1.00  0.00     0.032 C 
BRANCH   8   9
ATOM      9  CE  LYS     1      67.013  42.413  45.677  1.00  0.00     0.206 C 
BRANCH   9  10
ATOM     10  NZ  LYS     1      67.934  42.737  44.572  1.00  0.00    -0.064 N 
ATOM     11  HZ1 LYS     1      68.180  43.706  44.613  1.00 99.99     0.275 HD
ATOM     12  HZ2 LYS     1      68.765  42.186  44.648  1.00 99.99     0.275 HD
ATOM     13  HZ3 LYS     1      67.492  42.550  43.694  1.00 99.99     0.275 HD
ENDBRANCH   9  10
ENDBRANCH   8   9
ENDBRANCH   7   8
ENDBRANCH   6   7
ENDBRANCH   5   6
BRANCH   5  14
ATOM     14  C   LYS     1      63.624  43.633  49.452  1.00  0.00     0.259 C 
ATOM     15  O   LYS     1      62.524  44.128  49.204  1.00  0.00    -0.271 OA
ATOM     16  N   ILE     2      63.763  42.385  49.890  1.00  0.00    -0.338 N 
ATOM     17  H   ILE     2      64.651  41.942  50.017  1.00 99.99     0.164 HD
BRANCH  16  18
ATOM     18  CA  ILE     2      62.614  41.553  50.295  1.00  0.00     0.159 C 
BRANCH  18  19
ATOM     19  C   ILE     2      62.979  40.780  51.576  1.00  0.00     0.251 C 
ATOM     20  N   TRP     3      62.191  40.987  52.624  1.00  0.00    -0.337 N 
ATOM     21  H   TRP     3      61.495  41.704  52.648  1.00 99.99     0.164 HD
ATOM     22  O   ILE     2      64.012  40.113  51.621  1.00  0.00    -0.271 OA
BRANCH  20  23
ATOM     23  CA  TRP     3      62.282  40.176  53.849  1.00  0.00     0.164 C 
BRANCH  23  24
ATOM     24  CB  TRP     3      62.480  41.085  55.068  1.00  0.00     0.059 C 
BRANCH  24  25
ATOM     25  CG  TRP     3      63.694  40.671  55.904  1.00  0.00    -0.016 A 
ATOM     26  CD2 TRP     3      63.858  39.492  56.611  1.00  0.00    -0.001 A 
ATOM     27  CE2 TRP     3      65.088  39.581  57.244  1.00  0.00     0.042 A 
ATOM     28  CE3 TRP     3      63.045  38.382  56.793  1.00  0.00     0.014 A 
ATOM     29  NE1 TRP     3      65.621  40.756  56.911  1.00  0.00    -0.365 N 
ATOM     30  CZ2 TRP     3      65.509  38.547  58.073  1.00  0.00     0.030 A 
ATOM     31  HE1 TRP     3      66.516  41.093  57.202  1.00 99.99     0.165 HD
ATOM     32  CD1 TRP     3      64.781  41.408  56.106  1.00  0.00     0.097 A 
ATOM     33  CH2 TRP     3      64.694  37.439  58.270  1.00  0.00     0.002 A 
ATOM     34  CZ3 TRP     3      63.464  37.354  57.626  1.00  0.00     0.001 A 
ENDBRANCH  24  25
ENDBRANCH  23  24
BRANCH  23  35
ATOM     35  C   TRP     3      61.014  39.321  53.970  1.00  0.00     0.251 C 
ATOM     36  N   VAL     4      60.263  39.616  55.023  1.00  0.00    -0.338 N 
ATOM     37  H   VAL     4      60.504  40.358  55.646  1.00 99.99     0.164 HD
ATOM     38  O   TRP     3      60.771  38.411  53.178  1.00  0.00    -0.271 OA
BRANCH  36  39
ATOM     39  CA  VAL     4      59.020  38.896  55.362  1.00  0.00     0.159 C 
BRANCH  39  40
ATOM     40  C   VAL     4      57.854  39.777  54.890  1.00  0.00     0.251 C 
ATOM     41  N   ILE     5      57.758  39.943  53.571  1.00  0.00    -0.338 N 
ATOM     42  H   ILE     5      58.435  39.557  52.945  1.00 99.99     0.164 HD
ATOM     43  O   VAL     4      57.140  40.354  55.711  1.00  0.00    -0.271 OA
BRANCH  41  44
ATOM     44  CA  ILE     5      56.688  40.739  52.921  1.00  0.00     0.159 C 
BRANCH  44  45
ATOM     45  CB  ILE     5      57.147  42.199  52.690  1.00  0.00     0.029 C 
ATOM     46  CG2 ILE     5      58.683  42.272  52.768  1.00  0.00     0.002 C 
BRANCH  45  47
ATOM     47  CG1 ILE     5      56.678  42.734  51.325  1.00  0.00     0.002 C 
ATOM     48  CD  ILE     5      55.494  43.710  51.390  1.00  0.00     0.000 C 
ENDBRANCH  45  47
ENDBRANCH  44  45
BRANCH  44  49
ATOM     49  C   ILE     5      56.214  40.039  51.623  1.00  0.00     0.251 C 
ATOM     50  O   ILE     5      56.891  39.186  51.053  1.00  0.00    -0.271 OA
ATOM     51  N   ARG     6      54.959  40.347  51.302  1.00  0.00    -0.338 N 
ATOM     52  H   ARG     6      54.438  40.906  51.954  1.00 99.99     0.164 HD
BRANCH  51  53
ATOM     53  CA  ARG     6      54.147  39.885  50.153  1.00  0.00     0.159 C 
BRANCH  53  54
ATOM     54  C   ARG     6      54.615  40.659  48.896  1.00  0.00     0.251 C 
ATOM     55  N   TRP     7      55.596  40.056  48.228  1.00  0.00    -0.337 N 
ATOM     56  H   TRP     7      55.892  39.134  48.461  1.00 99.99     0.164 HD
ATOM     57  O   ARG     6      54.232  41.797  48.622  1.00  0.00    -0.271 OA
BRANCH  55  58
ATOM     58  CA  TRP     7      56.279  40.618  47.050  1.00  0.00     0.164 C 
BRANCH  58  59
ATOM     59  CB  TRP     7      57.769  40.278  47.208  1.00  0.00     0.059 C 
BRANCH  59  60
ATOM     60  CG  TRP     7      58.683  41.481  46.974  1.00  0.00    -0.016 A 
ATOM     61  CD1 TRP     7      58.586  42.642  47.614  1.00  0.00     0.097 A 
ATOM     62  NE1 TRP     7      59.711  43.338  47.457  1.00  0.00    -0.365 N 
ATOM     63  CE2 TRP     7      60.530  42.659  46.655  1.00  0.00     0.042 A 
ATOM     64  HE1 TRP     7      59.968  44.140  47.993  1.00 99.99     0.165 HD
ATOM     65  CZ2 TRP     7      61.805  42.928  46.179  1.00  0.00     0.030 A 
ATOM     66  CD2 TRP     7      59.902  41.470  46.316  1.00  0.00    -0.001 A 
ATOM     67  CH2 TRP     7      62.448  42.007  45.362  1.00  0.00     0.002 A 
ATOM     68  CZ3 TRP     7      61.811  40.821  45.013  1.00  0.00     0.001 A 
ATOM     69  CE3 TRP     7      60.537  40.548  45.494  1.00  0.00     0.014 A 
ENDBRANCH  59  60
ENDBRANCH  58  59
BRANCH  58  70
ATOM     70  C   TRP     7      55.678  40.115  45.722  1.00  0.00     0.251 C 
ATOM     71  O   TRP     7      54.637  40.585  45.264  1.00  0.00    -0.271 OA
ATOM     72  N   ARG     8      56.460  39.263  45.065  1.00  0.00    -0.336 N 
ATOM     73  H   ARG     8      57.348  39.002  45.440  1.00 99.99     0.164 HD
BRANCH  72  74
ATOM     74  CA  ARG     8      56.100  38.586  43.794  1.00  0.00     0.168 C 
BRANCH  74  75
ATOM     75  C   ARG     8      56.337  37.071  43.932  1.00  0.00     0.206 C 
ATOM     76  O   ARG     8      56.489  36.399  42.890  1.00 99.99    -0.646 OA
ATOM     77  OXT ARG     8      56.189  36.604  45.085  1.00 99.99    -0.646 OA
ENDBRANCH  74  75
BRANCH  74  78
ATOM     78  CB  ARG     8      56.996  39.073  42.651  1.00  0.00     0.035 C 
BRANCH  78  79
ATOM     79  CG  ARG     8      58.078  40.065  43.078  1.00  0.00     0.027 C 
BRANCH  79  80
ATOM     80  CD  ARG     8      57.960  41.323  42.224  1.00  0.00     0.116 C 
BRANCH  80  81
ATOM     81  NE  ARG     8      59.275  41.981  42.142  1.00  0.00    -0.212 N 
ATOM     82  CZ  ARG     8      59.645  43.069  42.820  1.00  0.00     0.666 C 
ATOM     83  NH1 ARG     8      58.822  43.682  43.662  1.00  0.00    -0.235 N 
ATOM     84  NH2 ARG     8      60.870  43.555  42.678  1.00  0.00    -0.235 N 
ATOM     85 1HH1 ARG     8      59.115  44.494  44.160  1.00 99.99     0.174 HD
ATOM     86 2HH1 ARG     8      57.904  43.313  43.787  1.00 99.99     0.174 HD
ATOM     87 1HH2 ARG     8      61.135  44.369  43.190  1.00 99.99     0.174 HD
ATOM     88 2HH2 ARG     8      61.522  43.118  42.062  1.00 99.99     0.174 HD
ATOM     89  HE  ARG     8      59.914  41.571  41.493  1.00 99.99     0.178 HD
ENDBRANCH  80  81
ENDBRANCH  79  80
ENDBRANCH  78  79
ENDBRANCH  74  78
ENDBRANCH  72  74
ENDBRANCH  58  70
ENDBRANCH  55  58
ENDBRANCH  53  54
BRANCH  53  90
ATOM     90  CB  ARG     6      52.658  40.131  50.443  1.00  0.00     0.034 C 
BRANCH  90  91
ATOM     91  CG  ARG     6      51.746  39.499  49.393  1.00  0.00     0.027 C 
BRANCH  91  92
ATOM     92  CD  ARG     6      52.227  38.083  49.094  1.00  0.00     0.116 C 
BRANCH  92  93
ATOM     93  NE  ARG     6      52.316  37.898  47.637  1.00  0.00    -0.212 N 
ATOM     94  HE  ARG     6      51.536  38.241  47.120  1.00 99.99     0.178 HD
ATOM     95  CZ  ARG     6      53.346  37.363  46.978  1.00  0.00     0.666 C 
ATOM     96  NH1 ARG     6      54.448  36.971  47.605  1.00  0.00    -0.235 N 
ATOM     97  NH2 ARG     6      53.256  37.131  45.677  1.00  0.00    -0.235 N 
ATOM     98 2HH1 ARG     6      54.505  37.090  48.594  1.00 99.99     0.174 HD
ATOM     99 1HH1 ARG     6      55.209  36.573  47.097  1.00 99.99     0.174 HD
ATOM    100 1HH2 ARG     6      54.034  36.729  45.198  1.00 99.99     0.174 HD
ATOM    101 2HH2 ARG     6      52.420  37.352  45.179  1.00 99.99     0.174 HD
ENDBRANCH  92  93
ENDBRANCH  91  92
ENDBRANCH  90  91
ENDBRANCH  53  90
ENDBRANCH  51  53
ENDBRANCH  44  49
ENDBRANCH  41  44
ENDBRANCH  39  40
BRANCH  39 102
ATOM    102  CB  VAL     4      58.952  38.631  56.882  1.00  0.00     0.029 C 
ATOM    103  CG2 VAL     4      59.850  39.590  57.675  1.00  0.00     0.002 C 
ATOM    104  CG1 VAL     4      59.345  37.191  57.235  1.00  0.00     0.002 C 
ENDBRANCH  39 102
ENDBRANCH  36  39
ENDBRANCH  23  35
ENDBRANCH  20  23
ENDBRANCH  18  19
BRANCH  18 105
ATOM    105  CB  ILE     2      62.188  40.645  49.114  1.00  0.00     0.029 C 
ATOM    106  CG2 ILE     2      63.397  40.106  48.326  1.00  0.00     0.002 C 
BRANCH 105 107
ATOM    107  CG1 ILE     2      61.233  39.533  49.584  1.00  0.00     0.002 C 
ATOM    108  CD  ILE     2      59.868  40.022  50.089  1.00  0.00     0.000 C 
ENDBRANCH 105 107
ENDBRANCH  18 105
ENDBRANCH  16  18
ENDBRANCH   5  14
ENDBRANCH   1   5
TORSDOF 38
ENDMDL
MODEL 8
REMARK VINA RESULT:      -3.7      2.337      8.235
REMARK WARNING: 32 MAX_TORS EXCEEDED!!!
REMARK  38 active torsions:
REMARK  status: ('A' for Active; 'I' for Inactive)
REMARK    1  A    between atoms: N_1  and  CA_2 
REMARK    2  A    between atoms: CA_2  and  CB_5 
REMARK    3  A    between atoms: CA_2  and  C_3 
REMARK       I    between atoms: C_3  and  N_16 
REMARK    4  A    between atoms: CB_5  and  CG_6 
REMARK    5  A    between atoms: CG_6  and  CD_7 
REMARK    6  A    between atoms: CD_7  and  CE_8 
REMARK    7  A    between atoms: CE_8  and  NZ_9 
REMARK    8  A    between atoms: N_16  and  CA_17 
REMARK    9  A    between atoms: CA_17  and  C_18 
REMARK   10  A    between atoms: CA_17  and  CB_20 
REMARK       I    between atoms: C_18  and  N_25 
REMARK   11  A    between atoms: CB_20  and  CG1_21 
REMARK   12  A    between atoms: N_25  and  CA_26 
REMARK   13  A    between atoms: CA_26  and  CB_29 
REMARK   14  A    between atoms: CA_26  and  C_27 
REMARK       I    between atoms: C_27  and  N_41 
REMARK   15  A    between atoms: CB_29  and  CG_30 
REMARK   16  A    between atoms: N_41  and  CA_42 
REMARK   17  A    between atoms: CA_42  and  C_43 
REMARK   18  A    between atoms: CA_42  and  CB_45 
REMARK       I    between atoms: C_43  and  N_49 
REMARK   19  A    between atoms: N_49  and  CA_50 
REMARK   20  A    between atoms: CA_50  and  CB_53 
REMARK   21  A    between atoms: CA_50  and  C_51 
REMARK       I    between atoms: C_51  and  N_58 
REMARK   22  A    between atoms: CB_53  and  CG1_54 
REMARK   23  A    between atoms: N_58  and  CA_59 
REMARK   24  A    between atoms: CA_59  and  C_60 
REMARK   25  A    between atoms: CA_59  and  CB_62 
REMARK       I    between atoms: C_60  and  N_75 
REMARK   26  A    between atoms: CB_62  and  CG_63 
REMARK   27  A    between atoms: CG_63  and  CD_64 
REMARK   28  A    between atoms: CD_64  and  NE_65 
REMARK       I    between atoms: NE_65  and  CZ_66 
REMARK       I    between atoms: CZ_66  and  NH1_67 
REMARK       I    between atoms: CZ_66  and  NH2_68 
REMARK   29  A    between atoms: N_75  and  CA_76 
REMARK   30  A    between atoms: CA_76  and  CB_79 
REMARK   31  A    between atoms: CA_76  and  C_77 
REMARK       I    between atoms: C_77  and  N_91 
REMARK   32  A    between atoms: CB_79  and  CG_80 
REMARK   33  A    between atoms: N_91  and  CA_92 
REMARK   34  A    between atoms: CA_92  and  C_93 
REMARK   35  A    between atoms: CA_92  and  CB_95 
REMARK   36  A    between atoms: CB_95  and  CG_96 
REMARK   37  A    between atoms: CG_96  and  CD_97 
REMARK   38  A    between atoms: CD_97  and  NE_98 
REMARK       I    between atoms: NE_98  and  CZ_99 
REMARK       I    between atoms: CZ_99  and  NH1_100 
ROOT
ATOM      1  N   LYS     1      56.233  39.880  49.947  1.00  0.00    -0.058 N 
ATOM      2  H1  LYS     1      55.508  39.272  50.278  1.00 99.99     0.276 HD
ATOM      3  H2  LYS     1      56.393  39.677  48.999  1.00 99.99     0.276 HD
ATOM      4  H3  LYS     1      57.075  39.665  50.414  1.00 99.99     0.276 HD
ENDROOT
BRANCH   1   5
ATOM      5  CA  LYS     1      55.775  41.271  50.160  1.00  0.00     0.255 C 
BRANCH   5   6
ATOM      6  CB  LYS     1      54.242  41.403  50.088  1.00  0.00     0.040 C 
BRANCH   6   7
ATOM      7  CG  LYS     1      53.424  40.184  50.539  1.00  0.00     0.004 C 
BRANCH   7   8
ATOM      8  CD  LYS     1      52.098  40.114  49.766  1.00  0.00     0.032 C 
BRANCH   8   9
ATOM      9  CE  LYS     1      52.074  38.973  48.741  1.00  0.00     0.206 C 
BRANCH   9  10
ATOM     10  NZ  LYS     1      53.270  38.114  48.839  1.00  0.00    -0.064 N 
ATOM     11  HZ1 LYS     1      53.803  38.185  47.996  1.00 99.99     0.275 HD
ATOM     12  HZ2 LYS     1      53.837  38.406  49.609  1.00 99.99     0.275 HD
ATOM     13  HZ3 LYS     1      52.994  37.162  48.973  1.00 99.99     0.275 HD
ENDBRANCH   9  10
ENDBRANCH   8   9
ENDBRANCH   7   8
ENDBRANCH   6   7
ENDBRANCH   5   6
BRANCH   5  14
ATOM     14  C   LYS     1      56.211  41.704  51.578  1.00  0.00     0.259 C 
ATOM     15  O   LYS     1      55.679  42.679  52.112  1.00  0.00    -0.271 OA
ATOM     16  N   ILE     2      57.062  40.912  52.223  1.00  0.00    -0.338 N 
ATOM     17  H   ILE     2      57.437  40.073  51.831  1.00 99.99     0.164 HD
BRANCH  16  18
ATOM     18  CA  ILE     2      57.587  41.235  53.564  1.00  0.00     0.159 C 
BRANCH  18  19
ATOM     19  C   ILE     2      58.910  42.011  53.413  1.00  0.00     0.251 C 
ATOM     20  N   TRP     3      60.019  41.311  53.615  1.00  0.00    -0.337 N 
ATOM     21  H   TRP     3      60.017  40.384  53.988  1.00 99.99     0.164 HD
ATOM     22  O   ILE     2      58.894  43.227  53.232  1.00  0.00    -0.271 OA
BRANCH  20  23
ATOM     23  CA  TRP     3      61.355  41.850  53.312  1.00  0.00     0.164 C 
BRANCH  23  24
ATOM     24  CB  TRP     3      62.438  40.894  53.829  1.00  0.00     0.059 C 
BRANCH  24  25
ATOM     25  CG  TRP     3      62.664  41.041  55.336  1.00  0.00    -0.016 A 
ATOM     26  CD2 TRP     3      61.971  40.402  56.350  1.00  0.00    -0.001 A 
ATOM     27  CE2 TRP     3      62.494  40.877  57.543  1.00  0.00     0.042 A 
ATOM     28  CE3 TRP     3      60.924  39.492  56.347  1.00  0.00     0.014 A 
ATOM     29  NE1 TRP     3      63.454  41.748  57.235  1.00  0.00    -0.365 N 
ATOM     30  CZ2 TRP     3      61.957  40.440  58.748  1.00  0.00     0.030 A 
ATOM     31  HE1 TRP     3      64.025  42.242  57.891  1.00 99.99     0.165 HD
ATOM     32  CD1 TRP     3      63.554  41.844  55.909  1.00  0.00     0.097 A 
ATOM     33  CH2 TRP     3      60.899  39.540  58.752  1.00  0.00     0.002 A 
ATOM     34  CZ3 TRP     3      60.385  39.061  57.551  1.00  0.00     0.001 A 
ENDBRANCH  24  25
ENDBRANCH  23  24
BRANCH  23  35
ATOM     35  C   TRP     3      61.463  42.076  51.799  1.00  0.00     0.251 C 
ATOM     36  N   VAL     4      61.193  41.000  51.072  1.00  0.00    -0.338 N 
ATOM     37  H   VAL     4      60.909  40.140  51.495  1.00 99.99     0.164 HD
ATOM     38  O   TRP     3      61.828  43.155  51.332  1.00  0.00    -0.271 OA
BRANCH  36  39
ATOM     39  CA  VAL     4      61.274  40.973  49.599  1.00  0.00     0.159 C 
BRANCH  39  40
ATOM     40  C   VAL     4      59.838  40.814  49.078  1.00  0.00     0.251 C 
ATOM     41  N   ILE     5      59.522  41.569  48.026  1.00  0.00    -0.338 N 
ATOM     42  H   ILE     5      60.169  42.227  47.642  1.00 99.99     0.164 HD
ATOM     43  O   VAL     4      59.034  40.103  49.682  1.00  0.00    -0.271 OA
BRANCH  41  44
ATOM     44  CA  ILE     5      58.193  41.542  47.366  1.00  0.00     0.159 C 
BRANCH  44  45
ATOM     45  CB  ILE     5      57.860  42.916  46.737  1.00  0.00     0.029 C 
ATOM     46  CG2 ILE     5      57.141  43.796  47.776  1.00  0.00     0.002 C 
BRANCH  45  47
ATOM     47  CG1 ILE     5      59.128  43.638  46.245  1.00  0.00     0.002 C 
ATOM     48  CD  ILE     5      59.141  43.962  44.744  1.00  0.00     0.000 C 
ENDBRANCH  45  47
ENDBRANCH  44  45
BRANCH  44  49
ATOM     49  C   ILE     5      58.125  40.375  46.350  1.00  0.00     0.251 C 
ATOM     50  O   ILE     5      57.186  39.583  46.321  1.00  0.00    -0.271 OA
ATOM     51  N   ARG     6      59.097  40.430  45.440  1.00  0.00    -0.338 N 
ATOM     52  H   ARG     6      59.695  41.237  45.449  1.00 99.99     0.164 HD
BRANCH  51  53
ATOM     53  CA  ARG     6      59.371  39.514  44.309  1.00  0.00     0.159 C 
BRANCH  53  54
ATOM     54  C   ARG     6      60.904  39.458  44.102  1.00  0.00     0.251 C 
ATOM     55  N   TRP     7      61.499  40.647  44.168  1.00  0.00    -0.337 N 
ATOM     56  H   TRP     7      61.002  41.461  44.453  1.00 99.99     0.164 HD
ATOM     57  O   ARG     6      61.502  38.438  43.756  1.00  0.00    -0.271 OA
BRANCH  55  58
ATOM     58  CA  TRP     7      62.933  40.883  43.924  1.00  0.00     0.164 C 
BRANCH  58  59
ATOM     59  CB  TRP     7      63.017  42.029  42.904  1.00  0.00     0.059 C 
BRANCH  59  60
ATOM     60  CG  TRP     7      62.506  41.634  41.519  1.00  0.00    -0.016 A 
ATOM     61  CD1 TRP     7      63.050  40.696  40.750  1.00  0.00     0.097 A 
ATOM     62  NE1 TRP     7      62.191  40.344  39.795  1.00  0.00    -0.365 N 
ATOM     63  CE2 TRP     7      61.099  41.101  39.896  1.00  0.00     0.042 A 
ATOM     64  HE1 TRP     7      62.275  39.532  39.219  1.00 99.99     0.165 HD
ATOM     65  CZ2 TRP     7      59.922  41.143  39.163  1.00  0.00     0.030 A 
ATOM     66  CD2 TRP     7      61.268  41.946  40.981  1.00  0.00    -0.001 A 
ATOM     67  CH2 TRP     7      58.917  42.034  39.517  1.00  0.00     0.002 A 
ATOM     68  CZ3 TRP     7      59.094  42.890  40.599  1.00  0.00     0.001 A 
ATOM     69  CE3 TRP     7      60.271  42.845  41.336  1.00  0.00     0.014 A 
ENDBRANCH  59  60
ENDBRANCH  58  59
BRANCH  58  70
ATOM     70  C   TRP     7      63.716  41.165  45.222  1.00  0.00     0.251 C 
ATOM     71  O   TRP     7      64.379  40.291  45.780  1.00  0.00    -0.271 OA
ATOM     72  N   ARG     8      63.730  42.447  45.576  1.00  0.00    -0.336 N 
ATOM     73  H   ARG     8      63.259  43.129  45.018  1.00 99.99     0.164 HD
BRANCH  72  74
ATOM     74  CA  ARG     8      64.359  42.982  46.808  1.00  0.00     0.168 C 
BRANCH  74  75
ATOM     75  C   ARG     8      63.304  43.726  47.646  1.00  0.00     0.206 C 
ATOM     76  O   ARG     8      63.698  44.510  48.534  1.00 99.99    -0.646 OA
ATOM     77  OXT ARG     8      62.120  43.355  47.476  1.00 99.99    -0.646 OA
ENDBRANCH  74  75
BRANCH  74  78
ATOM     78  CB  ARG     8      65.448  44.001  46.459  1.00  0.00     0.035 C 
BRANCH  78  79
ATOM     79  CG  ARG     8      66.765  43.795  47.208  1.00  0.00     0.027 C 
BRANCH  79  80
ATOM     80  CD  ARG     8      67.643  42.837  46.410  1.00  0.00     0.116 C 
BRANCH  80  81
ATOM     81  NE  ARG     8      67.245  42.876  44.993  1.00  0.00    -0.212 N 
ATOM     82  CZ  ARG     8      67.086  41.816  44.198  1.00  0.00     0.666 C 
ATOM     83  NH1 ARG     8      67.287  40.579  44.636  1.00  0.00    -0.235 N 
ATOM     84  NH2 ARG     8      66.698  41.979  42.942  1.00  0.00    -0.235 N 
ATOM     85 1HH1 ARG     8      67.165  39.798  44.028  1.00 99.99     0.174 HD
ATOM     86 2HH1 ARG     8      67.563  40.445  45.585  1.00 99.99     0.174 HD
ATOM     87 1HH2 ARG     8      66.584  41.179  42.357  1.00 99.99     0.174 HD
ATOM     88 2HH2 ARG     8      66.528  42.892  42.577  1.00 99.99     0.174 HD
ATOM     89  HE  ARG     8      67.115  43.791  44.614  1.00 99.99     0.178 HD
ENDBRANCH  80  81
ENDBRANCH  79  80
ENDBRANCH  78  79
ENDBRANCH  74  78
ENDBRANCH  72  74
ENDBRANCH  58  70
ENDBRANCH  55  58
ENDBRANCH  53  54
BRANCH  53  90
ATOM     90  CB  ARG     6      58.652  40.023  43.050  1.00  0.00     0.034 C 
BRANCH  90  91
ATOM     91  CG  ARG     6      58.385  38.910  42.038  1.00  0.00     0.027 C 
BRANCH  91  92
ATOM     92  CD  ARG     6      56.989  38.341  42.271  1.00  0.00     0.116 C 
BRANCH  92  93
ATOM     93  NE  ARG     6      56.271  39.193  43.232  1.00  0.00    -0.212 N 
ATOM     94  HE  ARG     6      56.676  40.091  43.383  1.00 99.99     0.178 HD
ATOM     95  CZ  ARG     6      55.136  38.880  43.859  1.00  0.00     0.666 C 
ATOM     96  NH1 ARG     6      54.504  37.735  43.629  1.00  0.00    -0.235 N 
ATOM     97  NH2 ARG     6      54.652  39.677  44.800  1.00  0.00    -0.235 N 
ATOM     98 2HH1 ARG     6      54.889  37.101  42.962  1.00 99.99     0.174 HD
ATOM     99 1HH1 ARG     6      53.656  37.517  44.107  1.00 99.99     0.174 HD
ATOM    100 1HH2 ARG     6      53.802  39.429  45.262  1.00 99.99     0.174 HD
ATOM    101 2HH2 ARG     6      55.131  40.516  45.049  1.00 99.99     0.174 HD
ENDBRANCH  92  93
ENDBRANCH  91  92
ENDBRANCH  90  91
ENDBRANCH  53  90
ENDBRANCH  51  53
ENDBRANCH  44  49
ENDBRANCH  41  44
ENDBRANCH  39  40
BRANCH  39 102
ATOM    102  CB  VAL     4      62.179  39.811  49.132  1.00  0.00     0.029 C 
ATOM    103  CG2 VAL     4      63.663  40.202  49.134  1.00  0.00     0.002 C 
ATOM    104  CG1 VAL     4      61.807  39.317  47.729  1.00  0.00     0.002 C 
ENDBRANCH  39 102
ENDBRANCH  36  39
ENDBRANCH  23  35
ENDBRANCH  20  23
ENDBRANCH  18  19
BRANCH  18 105
ATOM    105  CB  ILE     2      57.713  39.936  54.399  1.00  0.00     0.029 C 
ATOM    106  CG2 ILE     2      57.190  40.113  55.837  1.00  0.00     0.002 C 
BRANCH 105 107
ATOM    107  CG1 ILE     2      57.072  38.742  53.669  1.00  0.00     0.002 C 
ATOM    108  CD  ILE     2      57.977  37.510  53.523  1.00  0.00     0.000 C 
ENDBRANCH 105 107
ENDBRANCH  18 105
ENDBRANCH  16  18
ENDBRANCH   5  14
ENDBRANCH   1   5
TORSDOF 38
ENDMDL
MODEL 9
REMARK VINA RESULT:      -3.7      2.860      8.809
REMARK WARNING: 32 MAX_TORS EXCEEDED!!!
REMARK  38 active torsions:
REMARK  status: ('A' for Active; 'I' for Inactive)
REMARK    1  A    between atoms: N_1  and  CA_2 
REMARK    2  A    between atoms: CA_2  and  CB_5 
REMARK    3  A    between atoms: CA_2  and  C_3 
REMARK       I    between atoms: C_3  and  N_16 
REMARK    4  A    between atoms: CB_5  and  CG_6 
REMARK    5  A    between atoms: CG_6  and  CD_7 
REMARK    6  A    between atoms: CD_7  and  CE_8 
REMARK    7  A    between atoms: CE_8  and  NZ_9 
REMARK    8  A    between atoms: N_16  and  CA_17 
REMARK    9  A    between atoms: CA_17  and  C_18 
REMARK   10  A    between atoms: CA_17  and  CB_20 
REMARK       I    between atoms: C_18  and  N_25 
REMARK   11  A    between atoms: CB_20  and  CG1_21 
REMARK   12  A    between atoms: N_25  and  CA_26 
REMARK   13  A    between atoms: CA_26  and  CB_29 
REMARK   14  A    between atoms: CA_26  and  C_27 
REMARK       I    between atoms: C_27  and  N_41 
REMARK   15  A    between atoms: CB_29  and  CG_30 
REMARK   16  A    between atoms: N_41  and  CA_42 
REMARK   17  A    between atoms: CA_42  and  C_43 
REMARK   18  A    between atoms: CA_42  and  CB_45 
REMARK       I    between atoms: C_43  and  N_49 
REMARK   19  A    between atoms: N_49  and  CA_50 
REMARK   20  A    between atoms: CA_50  and  CB_53 
REMARK   21  A    between atoms: CA_50  and  C_51 
REMARK       I    between atoms: C_51  and  N_58 
REMARK   22  A    between atoms: CB_53  and  CG1_54 
REMARK   23  A    between atoms: N_58  and  CA_59 
REMARK   24  A    between atoms: CA_59  and  C_60 
REMARK   25  A    between atoms: CA_59  and  CB_62 
REMARK       I    between atoms: C_60  and  N_75 
REMARK   26  A    between atoms: CB_62  and  CG_63 
REMARK   27  A    between atoms: CG_63  and  CD_64 
REMARK   28  A    between atoms: CD_64  and  NE_65 
REMARK       I    between atoms: NE_65  and  CZ_66 
REMARK       I    between atoms: CZ_66  and  NH1_67 
REMARK       I    between atoms: CZ_66  and  NH2_68 
REMARK   29  A    between atoms: N_75  and  CA_76 
REMARK   30  A    between atoms: CA_76  and  CB_79 
REMARK   31  A    between atoms: CA_76  and  C_77 
REMARK       I    between atoms: C_77  and  N_91 
REMARK   32  A    between atoms: CB_79  and  CG_80 
REMARK   33  A    between atoms: N_91  and  CA_92 
REMARK   34  A    between atoms: CA_92  and  C_93 
REMARK   35  A    between atoms: CA_92  and  CB_95 
REMARK   36  A    between atoms: CB_95  and  CG_96 
REMARK   37  A    between atoms: CG_96  and  CD_97 
REMARK   38  A    between atoms: CD_97  and  NE_98 
REMARK       I    between atoms: NE_98  and  CZ_99 
REMARK       I    between atoms: CZ_99  and  NH1_100 
ROOT
ATOM      1  N   LYS     1      56.730  43.669  48.275  1.00  0.00    -0.058 N 
ATOM      2  H1  LYS     1      57.565  43.747  48.825  1.00 99.99     0.276 HD
ATOM      3  H2  LYS     1      56.981  43.341  47.384  1.00 99.99     0.276 HD
ATOM      4  H3  LYS     1      56.350  44.568  48.134  1.00 99.99     0.276 HD
ENDROOT
BRANCH   1   5
ATOM      5  CA  LYS     1      55.819  42.746  48.985  1.00  0.00     0.255 C 
BRANCH   5   6
ATOM      6  CB  LYS     1      56.120  41.266  48.676  1.00  0.00     0.040 C 
BRANCH   6   7
ATOM      7  CG  LYS     1      55.171  40.562  47.696  1.00  0.00     0.004 C 
BRANCH   7   8
ATOM      8  CD  LYS     1      53.801  40.329  48.351  1.00  0.00     0.032 C 
BRANCH   8   9
ATOM      9  CE  LYS     1      53.915  39.697  49.743  1.00  0.00     0.206 C 
BRANCH   9  10
ATOM     10  NZ  LYS     1      53.285  40.530  50.785  1.00  0.00    -0.064 N 
ATOM     11  HZ1 LYS     1      53.952  41.188  51.136  1.00 99.99     0.275 HD
ATOM     12  HZ2 LYS     1      52.508  41.027  50.400  1.00 99.99     0.275 HD
ATOM     13  HZ3 LYS     1      52.969  39.952  51.538  1.00 99.99     0.275 HD
ENDBRANCH   9  10
ENDBRANCH   8   9
ENDBRANCH   7   8
ENDBRANCH   6   7
ENDBRANCH   5   6
BRANCH   5  14
ATOM     14  C   LYS     1      56.020  42.950  50.504  1.00  0.00     0.259 C 
ATOM     15  O   LYS     1      55.500  43.915  51.068  1.00  0.00    -0.271 OA
ATOM     16  N   ILE     2      56.646  41.986  51.171  1.00  0.00    -0.338 N 
ATOM     17  H   ILE     2      57.000  41.157  50.738  1.00 99.99     0.164 HD
BRANCH  16  18
ATOM     18  CA  ILE     2      56.938  42.079  52.615  1.00  0.00     0.159 C 
BRANCH  18  19
ATOM     19  C   ILE     2      58.399  42.529  52.805  1.00  0.00     0.251 C 
ATOM     20  N   TRP     3      59.322  41.756  52.247  1.00  0.00    -0.337 N 
ATOM     21  H   TRP     3      59.116  40.860  51.855  1.00 99.99     0.164 HD
ATOM     22  O   ILE     2      58.660  43.484  53.535  1.00  0.00    -0.271 OA
BRANCH  20  23
ATOM     23  CA  TRP     3      60.737  42.155  52.164  1.00  0.00     0.164 C 
BRANCH  23  24
ATOM     24  CB  TRP     3      61.640  40.950  52.452  1.00  0.00     0.059 C 
BRANCH  24  25
ATOM     25  CG  TRP     3      62.052  40.878  53.925  1.00  0.00    -0.016 A 
ATOM     26  CD2 TRP     3      61.326  40.329  54.968  1.00  0.00    -0.001 A 
ATOM     27  CE2 TRP     3      62.074  40.532  56.117  1.00  0.00     0.042 A 
ATOM     28  CE3 TRP     3      60.084  39.715  55.030  1.00  0.00     0.014 A 
ATOM     29  NE1 TRP     3      63.191  41.164  55.757  1.00  0.00    -0.365 N 
ATOM     30  CZ2 TRP     3      61.571  40.119  57.345  1.00  0.00     0.030 A 
ATOM     31  HE1 TRP     3      63.934  41.429  56.370  1.00 99.99     0.165 HD
ATOM     32  CD1 TRP     3      63.174  41.370  54.439  1.00  0.00     0.097 A 
ATOM     33  CH2 TRP     3      60.321  39.515  57.416  1.00  0.00     0.002 A 
ATOM     34  CZ3 TRP     3      59.579  39.308  56.258  1.00  0.00     0.001 A 
ENDBRANCH  24  25
ENDBRANCH  23  24
BRANCH  23  35
ATOM     35  C   TRP     3      60.999  42.752  50.776  1.00  0.00     0.251 C 
ATOM     36  N   VAL     4      61.881  43.742  50.773  1.00  0.00    -0.338 N 
ATOM     37  H   VAL     4      62.348  44.031  51.608  1.00 99.99     0.164 HD
ATOM     38  O   TRP     3      60.388  42.365  49.780  1.00  0.00    -0.271 OA
BRANCH  36  39
ATOM     39  CA  VAL     4      62.258  44.493  49.559  1.00  0.00     0.159 C 
BRANCH  39  40
ATOM     40  C   VAL     4      63.479  43.782  48.958  1.00  0.00     0.251 C 
ATOM     41  N   ILE     5      63.233  43.018  47.893  1.00  0.00    -0.338 N 
ATOM     42  H   ILE     5      62.304  42.886  47.549  1.00 99.99     0.164 HD
ATOM     43  O   VAL     4      64.576  43.857  49.513  1.00  0.00    -0.271 OA
BRANCH  41  44
ATOM     44  CA  ILE     5      64.283  42.270  47.160  1.00  0.00     0.159 C 
BRANCH  44  45
ATOM     45  CB  ILE     5      63.951  40.759  47.108  1.00  0.00     0.029 C 
ATOM     46  CG2 ILE     5      65.009  39.973  47.906  1.00  0.00     0.002 C 
BRANCH  45  47
ATOM     47  CG1 ILE     5      62.554  40.464  47.684  1.00  0.00     0.002 C 
ATOM     48  CD  ILE     5      62.556  39.676  49.002  1.00  0.00     0.000 C 
ENDBRANCH  45  47
ENDBRANCH  44  45
BRANCH  44  49
ATOM     49  C   ILE     5      64.504  42.893  45.760  1.00  0.00     0.251 C 
ATOM     50  O   ILE     5      65.134  43.935  45.597  1.00  0.00    -0.271 OA
ATOM     51  N   ARG     6      64.081  42.102  44.775  1.00  0.00    -0.338 N 
ATOM     52  H   ARG     6      63.758  41.184  45.023  1.00 99.99     0.164 HD
BRANCH  51  53
ATOM     53  CA  ARG     6      64.118  42.330  43.311  1.00  0.00     0.159 C 
BRANCH  53  54
ATOM     54  C   ARG     6      62.923  41.576  42.680  1.00  0.00     0.251 C 
ATOM     55  N   TRP     7      62.349  42.227  41.671  1.00  0.00    -0.337 N 
ATOM     56  H   TRP     7      62.750  43.056  41.293  1.00 99.99     0.164 HD
ATOM     57  O   ARG     6      62.445  40.546  43.159  1.00  0.00    -0.271 OA
BRANCH  55  58
ATOM     58  CA  TRP     7      61.144  41.772  40.954  1.00  0.00     0.164 C 
BRANCH  58  59
ATOM     59  CB  TRP     7      60.036  42.786  41.279  1.00  0.00     0.059 C 
BRANCH  59  60
ATOM     60  CG  TRP     7      59.060  42.282  42.343  1.00  0.00    -0.016 A 
ATOM     61  CD1 TRP     7      58.008  41.506  42.098  1.00  0.00     0.097 A 
ATOM     62  NE1 TRP     7      57.580  40.958  43.234  1.00  0.00    -0.365 N 
ATOM     63  CE2 TRP     7      58.314  41.426  44.242  1.00  0.00     0.042 A 
ATOM     64  HE1 TRP     7      56.942  40.192  43.296  1.00 99.99     0.165 HD
ATOM     65  CZ2 TRP     7      58.287  41.182  45.608  1.00  0.00     0.030 A 
ATOM     66  CD2 TRP     7      59.264  42.285  43.713  1.00  0.00    -0.001 A 
ATOM     67  CH2 TRP     7      59.211  41.801  46.440  1.00  0.00     0.002 A 
ATOM     68  CZ3 TRP     7      60.156  42.672  45.908  1.00  0.00     0.001 A 
ATOM     69  CE3 TRP     7      60.187  42.912  44.540  1.00  0.00     0.014 A 
ENDBRANCH  59  60
ENDBRANCH  58  59
BRANCH  58  70
ATOM     70  C   TRP     7      61.386  41.599  39.442  1.00  0.00     0.251 C 
ATOM     71  O   TRP     7      62.310  40.912  39.008  1.00  0.00    -0.271 OA
ATOM     72  N   ARG     8      60.428  42.121  38.680  1.00  0.00    -0.336 N 
ATOM     73  H   ARG     8      59.643  42.576  39.098  1.00 99.99     0.164 HD
BRANCH  72  74
ATOM     74  CA  ARG     8      60.440  42.145  37.196  1.00  0.00     0.168 C 
BRANCH  74  75
ATOM     75  C   ARG     8      60.034  43.544  36.699  1.00  0.00     0.206 C 
ATOM     76  O   ARG     8      58.906  43.979  37.014  1.00 99.99    -0.646 OA
ATOM     77  OXT ARG     8      60.811  44.069  35.870  1.00 99.99    -0.646 OA
ENDBRANCH  74  75
BRANCH  74  78
ATOM     78  CB  ARG     8      59.413  41.158  36.632  1.00  0.00     0.035 C 
BRANCH  78  79
ATOM     79  CG  ARG     8      60.027  39.949  35.924  1.00  0.00     0.027 C 
BRANCH  79  80
ATOM     80  CD  ARG     8      59.664  38.686  36.699  1.00  0.00     0.116 C 
BRANCH  80  81
ATOM     81  NE  ARG     8      60.557  38.555  37.862  1.00  0.00    -0.212 N 
ATOM     82  CZ  ARG     8      61.628  37.762  37.937  1.00  0.00     0.666 C 
ATOM     83  NH1 ARG     8      61.995  36.986  36.925  1.00  0.00    -0.235 N 
ATOM     84  NH2 ARG     8      62.370  37.750  39.035  1.00  0.00    -0.235 N 
ATOM     85 1HH1 ARG     8      62.798  36.400  36.998  1.00 99.99     0.174 HD
ATOM     86 2HH1 ARG     8      61.452  37.002  36.088  1.00 99.99     0.174 HD
ATOM     87 1HH2 ARG     8      63.168  37.153  39.080  1.00 99.99     0.174 HD
ATOM     88 2HH2 ARG     8      62.133  38.325  39.815  1.00 99.99     0.174 HD
ATOM     89  HE  ARG     8      60.297  39.097  38.659  1.00 99.99     0.178 HD
ENDBRANCH  80  81
ENDBRANCH  79  80
ENDBRANCH  78  79
ENDBRANCH  74  78
ENDBRANCH  72  74
ENDBRANCH  58  70
ENDBRANCH  55  58
ENDBRANCH  53  54
BRANCH  53  90
ATOM     90  CB  ARG     6      65.458  41.832  42.748  1.00  0.00     0.034 C 
BRANCH  90  91
ATOM     91  CG  ARG     6      66.026  40.658  43.543  1.00  0.00     0.027 C 
BRANCH  91  92
ATOM     92  CD  ARG     6      67.493  40.929  43.863  1.00  0.00     0.116 C 
BRANCH  92  93
ATOM     93  NE  ARG     6      67.579  41.797  45.049  1.00  0.00    -0.212 N 
ATOM     94  HE  ARG     6      67.011  41.518  45.818  1.00 99.99     0.178 HD
ATOM     95  CZ  ARG     6      68.365  42.868  45.178  1.00  0.00     0.666 C 
ATOM     96  NH1 ARG     6      69.208  43.235  44.220  1.00  0.00    -0.235 N 
ATOM     97  NH2 ARG     6      68.260  43.646  46.245  1.00  0.00    -0.235 N 
ATOM     98 2HH1 ARG     6      69.255  42.688  43.388  1.00 99.99     0.174 HD
ATOM     99 1HH1 ARG     6      69.788  44.039  44.334  1.00 99.99     0.174 HD
ATOM    100 1HH2 ARG     6      68.854  44.445  46.327  1.00 99.99     0.174 HD
ATOM    101 2HH2 ARG     6      67.594  43.441  46.959  1.00 99.99     0.174 HD
ENDBRANCH  92  93
ENDBRANCH  91  92
ENDBRANCH  90  91
ENDBRANCH  53  90
ENDBRANCH  51  53
ENDBRANCH  44  49
ENDBRANCH  41  44
ENDBRANCH  39  40
BRANCH  39 102
ATOM    102  CB  VAL     4      62.574  45.963  49.913  1.00  0.00     0.029 C 
ATOM    103  CG2 VAL     4      63.723  46.525  49.065  1.00  0.00     0.002 C 
ATOM    104  CG1 VAL     4      62.932  46.136  51.394  1.00  0.00     0.002 C 
ENDBRANCH  39 102
ENDBRANCH  36  39
ENDBRANCH  23  35
ENDBRANCH  20  23
ENDBRANCH  18  19
BRANCH  18 105
ATOM    105  CB  ILE     2      56.602  40.731  53.301  1.00  0.00     0.029 C 
ATOM    106  CG2 ILE     2      55.324  40.813  54.157  1.00  0.00     0.002 C 
BRANCH 105 107
ATOM    107  CG1 ILE     2      56.567  39.580  52.278  1.00  0.00     0.002 C 
ATOM    108  CD  ILE     2      57.677  38.533  52.443  1.00  0.00     0.000 C 
ENDBRANCH 105 107
ENDBRANCH  18 105
ENDBRANCH  16  18
ENDBRANCH   5  14
ENDBRANCH   1   5
TORSDOF 38
ENDMDL
