MODEL 1
REMARK VINA RESULT:      -5.0      0.000      0.000
REMARK WARNING: 32 MAX_TORS EXCEEDED!!!
REMARK  37 active torsions:
REMARK  status: ('A' for Active; 'I' for Inactive)
REMARK    1  A    between atoms: N_1  and  CA_2 
REMARK    2  A    between atoms: CA_2  and  CB_5 
REMARK    3  A    between atoms: CA_2  and  C_3 
REMARK       I    between atoms: C_3  and  N_20 
REMARK    4  A    between atoms: CB_5  and  CG_6 
REMARK    5  A    between atoms: CG_6  and  CD_7 
REMARK    6  A    between atoms: CD_7  and  NE_8 
REMARK       I    between atoms: NE_8  and  CZ_9 
REMARK       I    between atoms: CZ_9  and  NH1_10 
REMARK       I    between atoms: CZ_9  and  NH2_11 
REMARK    7  A    between atoms: N_20  and  CA_21 
REMARK    8  A    between atoms: CA_21  and  C_22 
REMARK    9  A    between atoms: CA_21  and  CB_24 
REMARK       I    between atoms: C_22  and  N_29 
REMARK   10  A    between atoms: CB_24  and  CG1_25 
REMARK   11  A    between atoms: N_29  and  CA_30 
REMARK   12  A    between atoms: CA_30  and  CB_33 
REMARK   13  A    between atoms: CA_30  and  C_31 
REMARK       I    between atoms: C_31  and  N_45 
REMARK   14  A    between atoms: CB_33  and  CG_34 
REMARK   15  A    between atoms: N_45  and  CA_46 
REMARK   16  A    between atoms: CA_46  and  CB_49 
REMARK   17  A    between atoms: CA_46  and  C_47 
REMARK       I    between atoms: C_47  and  N_53 
REMARK   18  A    between atoms: N_53  and  CA_54 
REMARK   19  A    between atoms: CA_54  and  C_55 
REMARK   20  A    between atoms: CA_54  and  CB_57 
REMARK       I    between atoms: C_55  and  N_62 
REMARK   21  A    between atoms: CB_57  and  CG1_58 
REMARK   22  A    between atoms: N_62  and  CA_63 
REMARK   23  A    between atoms: CA_63  and  C_64 
REMARK   24  A    between atoms: CA_63  and  CB_66 
REMARK       I    between atoms: C_64  and  N_79 
REMARK   25  A    between atoms: CB_66  and  CG_67 
REMARK   26  A    between atoms: CG_67  and  CD_68 
REMARK   27  A    between atoms: CD_68  and  NE_69 
REMARK       I    between atoms: NE_69  and  CZ_70 
REMARK       I    between atoms: CZ_70  and  NH2_72 
REMARK       I    between atoms: CZ_70  and  NH1_71 
REMARK   28  A    between atoms: N_79  and  CA_80 
REMARK   29  A    between atoms: CA_80  and  CB_83 
REMARK   30  A    between atoms: CA_80  and  C_81 
REMARK       I    between atoms: C_81  and  N_95 
REMARK   31  A    between atoms: CB_83  and  CG_84 
REMARK   32  A    between atoms: N_95  and  CA_96 
REMARK   33  A    between atoms: CA_96  and  CB_99 
REMARK   34  A    between atoms: CA_96  and  C_97 
REMARK   35  A    between atoms: CB_99  and  CG_100 
REMARK   36  A    between atoms: CG_100  and  CD_101 
REMARK   37  A    between atoms: CD_101  and  NE_102 
REMARK       I    between atoms: NE_102  and  CZ_103 
REMARK       I    between atoms: CZ_103  and  NH1_104 
ROOT
ATOM      1  N   ARG     1      58.175  44.300  46.378  1.00  0.00    -0.058 N 
ATOM      2  H1  ARG     1      59.155  44.422  46.209  1.00 99.99     0.276 HD
ATOM      3  H2  ARG     1      57.728  44.185  45.508  1.00 99.99     0.276 HD
ATOM      4  H3  ARG     1      57.803  45.136  46.754  1.00 99.99     0.276 HD
ENDROOT
BRANCH   1   5
ATOM      5  CA  ARG     1      58.017  43.122  47.266  1.00  0.00     0.255 C 
BRANCH   5   6
ATOM      6  CB  ARG     1      59.277  42.919  48.134  1.00  0.00     0.042 C 
BRANCH   6   7
ATOM      7  CG  ARG     1      60.524  43.655  47.610  1.00  0.00     0.027 C 
BRANCH   7   8
ATOM      8  CD  ARG     1      61.453  44.169  48.721  1.00  0.00     0.116 C 
BRANCH   8   9
ATOM      9  NE  ARG     1      62.318  43.106  49.275  1.00  0.00    -0.212 N 
ATOM     10  CZ  ARG     1      62.761  43.020  50.536  1.00  0.00     0.666 C 
ATOM     11  NH1 ARG     1      62.453  43.922  51.460  1.00  0.00    -0.235 N 
ATOM     12  NH2 ARG     1      63.525  42.000  50.910  1.00  0.00    -0.235 N 
ATOM     13 2HH1 ARG     1      61.873  44.695  51.210  1.00 99.99     0.174 HD
ATOM     14 1HH1 ARG     1      62.790  43.826  52.395  1.00 99.99     0.174 HD
ATOM     15 1HH2 ARG     1      63.842  41.943  51.855  1.00 99.99     0.174 HD
ATOM     16 2HH2 ARG     1      63.786  41.292  50.256  1.00 99.99     0.174 HD
ATOM     17  HE  ARG     1      62.613  42.411  48.624  1.00 99.99     0.178 HD
ENDBRANCH   8   9
ENDBRANCH   7   8
ENDBRANCH   6   7
ENDBRANCH   5   6
BRANCH   5  18
ATOM     18  C   ARG     1      56.797  43.363  48.182  1.00  0.00     0.259 C 
ATOM     19  O   ARG     1      56.051  44.317  47.968  1.00  0.00    -0.271 OA
ATOM     20  N   ILE     2      56.529  42.424  49.087  1.00  0.00    -0.338 N 
ATOM     21  H   ILE     2      57.087  41.603  49.204  1.00 99.99     0.164 HD
BRANCH  20  22
ATOM     22  CA  ILE     2      55.418  42.541  50.058  1.00  0.00     0.159 C 
BRANCH  22  23
ATOM     23  C   ILE     2      56.039  42.798  51.446  1.00  0.00     0.251 C 
ATOM     24  O   ILE     2      55.697  43.775  52.110  1.00  0.00    -0.271 OA
ATOM     25  N   TRP     3      56.883  41.867  51.879  1.00  0.00    -0.337 N 
ATOM     26  H   TRP     3      57.026  41.008  51.388  1.00 99.99     0.164 HD
BRANCH  25  27
ATOM     27  CA  TRP     3      57.667  41.990  53.122  1.00  0.00     0.164 C 
BRANCH  27  28
ATOM     28  CB  TRP     3      57.290  40.872  54.099  1.00  0.00     0.059 C 
BRANCH  28  29
ATOM     29  CG  TRP     3      55.998  40.115  53.768  1.00  0.00    -0.016 A 
ATOM     30  CD2 TRP     3      55.942  39.061  52.872  1.00  0.00    -0.001 A 
ATOM     31  CE3 TRP     3      56.877  38.541  51.990  1.00  0.00     0.014 A 
ATOM     32  CE2 TRP     3      54.702  38.463  53.025  1.00  0.00     0.042 A 
ATOM     33  CZ3 TRP     3      56.577  37.400  51.261  1.00  0.00     0.001 A 
ATOM     34  CH2 TRP     3      55.329  36.799  51.401  1.00  0.00     0.002 A 
ATOM     35  CZ2 TRP     3      54.389  37.334  52.276  1.00  0.00     0.030 A 
ATOM     36  NE1 TRP     3      54.056  39.136  53.975  1.00  0.00    -0.365 N 
ATOM     37  CD1 TRP     3      54.829  40.133  54.411  1.00  0.00     0.097 A 
ATOM     38  HE1 TRP     3      53.161  38.896  54.353  1.00 99.99     0.165 HD
ENDBRANCH  28  29
ENDBRANCH  27  28
BRANCH  27  39
ATOM     39  C   TRP     3      59.166  41.921  52.806  1.00  0.00     0.251 C 
ATOM     40  O   TRP     3      59.687  42.705  52.013  1.00  0.00    -0.271 OA
ATOM     41  N   VAL     4      59.859  41.103  53.589  1.00  0.00    -0.338 N 
ATOM     42  H   VAL     4      59.421  40.538  54.286  1.00 99.99     0.164 HD
BRANCH  41  43
ATOM     43  CA  VAL     4      61.321  40.922  53.469  1.00  0.00     0.159 C 
BRANCH  43  44
ATOM     44  CB  VAL     4      61.979  40.855  54.865  1.00  0.00     0.029 C 
ATOM     45  CG1 VAL     4      61.282  39.839  55.780  1.00  0.00     0.002 C 
ATOM     46  CG2 VAL     4      63.467  40.494  54.779  1.00  0.00     0.002 C 
ENDBRANCH  43  44
BRANCH  43  47
ATOM     47  C   VAL     4      61.588  39.650  52.648  1.00  0.00     0.251 C 
ATOM     48  N   ILE     5      60.636  38.721  52.718  1.00  0.00    -0.338 N 
ATOM     49  H   ILE     5      59.872  38.819  53.354  1.00 99.99     0.164 HD
ATOM     50  O   VAL     4      62.585  39.568  51.935  1.00  0.00    -0.271 OA
BRANCH  48  51
ATOM     51  CA  ILE     5      60.669  37.410  52.019  1.00  0.00     0.159 C 
BRANCH  51  52
ATOM     52  C   ILE     5      60.190  37.378  50.546  1.00  0.00     0.251 C 
ATOM     53  N   ARG     6      60.386  38.485  49.834  1.00  0.00    -0.338 N 
ATOM     54  H   ARG     6      60.859  39.271  50.225  1.00 99.99     0.164 HD
ATOM     55  O   ILE     5      59.630  36.382  50.095  1.00  0.00    -0.271 OA
BRANCH  53  56
ATOM     56  CA  ARG     6      60.171  38.597  48.380  1.00  0.00     0.159 C 
BRANCH  56  57
ATOM     57  C   ARG     6      61.268  39.545  47.874  1.00  0.00     0.251 C 
ATOM     58  N   TRP     7      61.628  39.299  46.621  1.00  0.00    -0.337 N 
ATOM     59  H   TRP     7      61.201  38.574  46.088  1.00 99.99     0.164 HD
ATOM     60  O   ARG     6      61.943  40.218  48.655  1.00  0.00    -0.271 OA
BRANCH  58  61
ATOM     61  CA  TRP     7      62.724  40.000  45.929  1.00  0.00     0.164 C 
BRANCH  61  62
ATOM     62  CB  TRP     7      62.499  41.515  46.015  1.00  0.00     0.059 C 
BRANCH  62  63
ATOM     63  CG  TRP     7      62.246  42.125  44.631  1.00  0.00    -0.016 A 
ATOM     64  CD2 TRP     7      61.037  42.167  43.957  1.00  0.00    -0.001 A 
ATOM     65  CE2 TRP     7      61.287  42.765  42.732  1.00  0.00     0.042 A 
ATOM     66  CE3 TRP     7      59.760  41.731  44.283  1.00  0.00     0.014 A 
ATOM     67  NE1 TRP     7      62.587  43.057  42.694  1.00  0.00    -0.365 N 
ATOM     68  CZ2 TRP     7      60.250  42.929  41.821  1.00  0.00     0.030 A 
ATOM     69  HE1 TRP     7      63.066  43.480  41.924  1.00 99.99     0.165 HD
ATOM     70  CD1 TRP     7      63.160  42.672  43.835  1.00  0.00     0.097 A 
ATOM     71  CH2 TRP     7      58.968  42.490  42.141  1.00  0.00     0.002 A 
ATOM     72  CZ3 TRP     7      58.725  41.887  43.370  1.00  0.00     0.001 A 
ENDBRANCH  62  63
ENDBRANCH  61  62
BRANCH  61  73
ATOM     73  C   TRP     7      64.123  39.619  46.438  1.00  0.00     0.251 C 
ATOM     74  O   TRP     7      64.462  38.449  46.601  1.00  0.00    -0.271 OA
ATOM     75  N   ARG     8      64.970  40.641  46.425  1.00  0.00    -0.336 N 
ATOM     76  H   ARG     8      64.675  41.536  46.095  1.00 99.99     0.164 HD
BRANCH  75  77
ATOM     77  CA  ARG     8      66.355  40.609  46.943  1.00  0.00     0.168 C 
BRANCH  77  78
ATOM     78  CB  ARG     8      67.209  41.685  46.263  1.00  0.00     0.035 C 
BRANCH  78  79
ATOM     79  CG  ARG     8      66.464  42.937  45.801  1.00  0.00     0.027 C 
BRANCH  79  80
ATOM     80  CD  ARG     8      67.048  44.118  46.571  1.00  0.00     0.116 C 
BRANCH  80  81
ATOM     81  NE  ARG     8      65.983  45.013  47.048  1.00  0.00    -0.212 N 
ATOM     82  HE  ARG     8      65.482  45.495  46.332  1.00 99.99     0.178 HD
ATOM     83  CZ  ARG     8      65.639  45.192  48.325  1.00  0.00     0.666 C 
ATOM     84  NH1 ARG     8      66.226  44.519  49.308  1.00  0.00    -0.235 N 
ATOM     85  NH2 ARG     8      64.730  46.099  48.653  1.00  0.00    -0.235 N 
ATOM     86 2HH1 ARG     8      66.937  43.857  49.076  1.00 99.99     0.174 HD
ATOM     87 1HH1 ARG     8      65.961  44.667  50.258  1.00 99.99     0.174 HD
ATOM     88 2HH2 ARG     8      64.298  46.657  47.948  1.00 99.99     0.174 HD
ATOM     89 1HH2 ARG     8      64.490  46.226  49.612  1.00 99.99     0.174 HD
ENDBRANCH  80  81
ENDBRANCH  79  80
ENDBRANCH  78  79
ENDBRANCH  77  78
BRANCH  77  90
ATOM     90  C   ARG     8      66.306  40.976  48.435  1.00  0.00     0.206 C 
ATOM     91  O   ARG     8      65.387  41.722  48.835  1.00 99.99    -0.646 OA
ATOM     92  OXT ARG     8      67.289  40.582  49.106  1.00 99.99    -0.646 OA
ENDBRANCH  77  90
ENDBRANCH  75  77
ENDBRANCH  61  73
ENDBRANCH  58  61
ENDBRANCH  56  57
BRANCH  56  93
ATOM     93  CB  ARG     6      58.799  39.203  48.066  1.00  0.00     0.034 C 
BRANCH  93  94
ATOM     94  CG  ARG     6      57.938  38.364  47.114  1.00  0.00     0.027 C 
BRANCH  94  95
ATOM     95  CD  ARG     6      57.973  38.935  45.692  1.00  0.00     0.116 C 
BRANCH  95  96
ATOM     96  NE  ARG     6      56.789  38.505  44.921  1.00  0.00    -0.212 N 
ATOM     97  HE  ARG     6      56.785  37.540  44.665  1.00 99.99     0.178 HD
ATOM     98  CZ  ARG     6      55.764  39.271  44.534  1.00  0.00     0.666 C 
ATOM     99  NH2 ARG     6      54.772  38.749  43.825  1.00  0.00    -0.235 N 
ATOM    100  NH1 ARG     6      55.715  40.565  44.821  1.00  0.00    -0.235 N 
ATOM    101 2HH2 ARG     6      54.779  37.782  43.580  1.00 99.99     0.174 HD
ATOM    102 1HH2 ARG     6      54.010  39.329  43.545  1.00 99.99     0.174 HD
ATOM    103 2HH1 ARG     6      56.465  40.966  45.346  1.00 99.99     0.174 HD
ATOM    104 1HH1 ARG     6      54.943  41.123  44.529  1.00 99.99     0.174 HD
ENDBRANCH  95  96
ENDBRANCH  94  95
ENDBRANCH  93  94
ENDBRANCH  56  93
ENDBRANCH  53  56
ENDBRANCH  51  52
BRANCH  51 105
ATOM    105  CB  ILE     5      59.941  36.330  52.843  1.00  0.00     0.029 C 
ATOM    106  CG2 ILE     5      60.916  35.187  53.170  1.00  0.00     0.002 C 
BRANCH 105 107
ATOM    107  CG1 ILE     5      59.253  36.919  54.088  1.00  0.00     0.002 C 
ATOM    108  CD  ILE     5      58.001  36.153  54.537  1.00  0.00     0.000 C 
ENDBRANCH 105 107
ENDBRANCH  51 105
ENDBRANCH  48  51
ENDBRANCH  43  47
ENDBRANCH  41  43
ENDBRANCH  27  39
ENDBRANCH  25  27
ENDBRANCH  22  23
BRANCH  22 109
ATOM    109  CB  ILE     2      54.549  41.260  50.024  1.00  0.00     0.029 C 
ATOM    110  CG2 ILE     2      53.126  41.553  49.510  1.00  0.00     0.002 C 
BRANCH 109 111
ATOM    111  CG1 ILE     2      55.211  40.170  49.158  1.00  0.00     0.002 C 
ATOM    112  CD  ILE     2      54.230  39.256  48.408  1.00  0.00     0.000 C 
ENDBRANCH 109 111
ENDBRANCH  22 109
ENDBRANCH  20  22
ENDBRANCH   5  18
ENDBRANCH   1   5
TORSDOF 37
ENDMDL
MODEL 2
REMARK VINA RESULT:      -4.7      2.427      9.123
REMARK WARNING: 32 MAX_TORS EXCEEDED!!!
REMARK  37 active torsions:
REMARK  status: ('A' for Active; 'I' for Inactive)
REMARK    1  A    between atoms: N_1  and  CA_2 
REMARK    2  A    between atoms: CA_2  and  CB_5 
REMARK    3  A    between atoms: CA_2  and  C_3 
REMARK       I    between atoms: C_3  and  N_20 
REMARK    4  A    between atoms: CB_5  and  CG_6 
REMARK    5  A    between atoms: CG_6  and  CD_7 
REMARK    6  A    between atoms: CD_7  and  NE_8 
REMARK       I    between atoms: NE_8  and  CZ_9 
REMARK       I    between atoms: CZ_9  and  NH1_10 
REMARK       I    between atoms: CZ_9  and  NH2_11 
REMARK    7  A    between atoms: N_20  and  CA_21 
REMARK    8  A    between atoms: CA_21  and  C_22 
REMARK    9  A    between atoms: CA_21  and  CB_24 
REMARK       I    between atoms: C_22  and  N_29 
REMARK   10  A    between atoms: CB_24  and  CG1_25 
REMARK   11  A    between atoms: N_29  and  CA_30 
REMARK   12  A    between atoms: CA_30  and  CB_33 
REMARK   13  A    between atoms: CA_30  and  C_31 
REMARK       I    between atoms: C_31  and  N_45 
REMARK   14  A    between atoms: CB_33  and  CG_34 
REMARK   15  A    between atoms: N_45  and  CA_46 
REMARK   16  A    between atoms: CA_46  and  CB_49 
REMARK   17  A    between atoms: CA_46  and  C_47 
REMARK       I    between atoms: C_47  and  N_53 
REMARK   18  A    between atoms: N_53  and  CA_54 
REMARK   19  A    between atoms: CA_54  and  C_55 
REMARK   20  A    between atoms: CA_54  and  CB_57 
REMARK       I    between atoms: C_55  and  N_62 
REMARK   21  A    between atoms: CB_57  and  CG1_58 
REMARK   22  A    between atoms: N_62  and  CA_63 
REMARK   23  A    between atoms: CA_63  and  C_64 
REMARK   24  A    between atoms: CA_63  and  CB_66 
REMARK       I    between atoms: C_64  and  N_79 
REMARK   25  A    between atoms: CB_66  and  CG_67 
REMARK   26  A    between atoms: CG_67  and  CD_68 
REMARK   27  A    between atoms: CD_68  and  NE_69 
REMARK       I    between atoms: NE_69  and  CZ_70 
REMARK       I    between atoms: CZ_70  and  NH2_72 
REMARK       I    between atoms: CZ_70  and  NH1_71 
REMARK   28  A    between atoms: N_79  and  CA_80 
REMARK   29  A    between atoms: CA_80  and  CB_83 
REMARK   30  A    between atoms: CA_80  and  C_81 
REMARK       I    between atoms: C_81  and  N_95 
REMARK   31  A    between atoms: CB_83  and  CG_84 
REMARK   32  A    between atoms: N_95  and  CA_96 
REMARK   33  A    between atoms: CA_96  and  CB_99 
REMARK   34  A    between atoms: CA_96  and  C_97 
REMARK   35  A    between atoms: CB_99  and  CG_100 
REMARK   36  A    between atoms: CG_100  and  CD_101 
REMARK   37  A    between atoms: CD_101  and  NE_102 
REMARK       I    between atoms: NE_102  and  CZ_103 
REMARK       I    between atoms: CZ_103  and  NH1_104 
ROOT
ATOM      1  N   ARG     1      54.707  40.244  45.270  1.00  0.00    -0.058 N 
ATOM      2  H1  ARG     1      54.247  40.988  44.782  1.00 99.99     0.276 HD
ATOM      3  H2  ARG     1      54.559  39.411  44.765  1.00 99.99     0.276 HD
ATOM      4  H3  ARG     1      54.263  40.102  46.142  1.00 99.99     0.276 HD
ENDROOT
BRANCH   1   5
ATOM      5  CA  ARG     1      56.143  40.602  45.381  1.00  0.00     0.255 C 
BRANCH   5   6
ATOM      6  CB  ARG     1      56.695  40.216  46.770  1.00  0.00     0.042 C 
BRANCH   6   7
ATOM      7  CG  ARG     1      55.898  39.104  47.476  1.00  0.00     0.027 C 
BRANCH   7   8
ATOM      8  CD  ARG     1      54.997  39.612  48.611  1.00  0.00     0.116 C 
BRANCH   8   9
ATOM      9  NE  ARG     1      55.225  41.038  48.923  1.00  0.00    -0.212 N 
ATOM     10  CZ  ARG     1      54.334  41.890  49.449  1.00  0.00     0.666 C 
ATOM     11  NH1 ARG     1      53.098  41.520  49.759  1.00  0.00    -0.235 N 
ATOM     12  NH2 ARG     1      54.674  43.149  49.693  1.00  0.00    -0.235 N 
ATOM     13 2HH1 ARG     1      52.817  40.577  49.594  1.00 99.99     0.174 HD
ATOM     14 1HH1 ARG     1      52.459  42.174  50.159  1.00 99.99     0.174 HD
ATOM     15 1HH2 ARG     1      54.003  43.771  50.094  1.00 99.99     0.174 HD
ATOM     16 2HH2 ARG     1      55.591  43.480  49.481  1.00 99.99     0.174 HD
ATOM     17  HE  ARG     1      56.127  41.390  48.683  1.00 99.99     0.178 HD
ENDBRANCH   8   9
ENDBRANCH   7   8
ENDBRANCH   6   7
ENDBRANCH   5   6
BRANCH   5  18
ATOM     18  C   ARG     1      56.921  39.836  44.289  1.00  0.00     0.259 C 
ATOM     19  O   ARG     1      56.408  38.860  43.742  1.00  0.00    -0.271 OA
ATOM     20  N   ILE     2      58.074  40.367  43.886  1.00  0.00    -0.338 N 
ATOM     21  H   ILE     2      58.451  41.209  44.271  1.00 99.99     0.164 HD
BRANCH  20  22
ATOM     22  CA  ILE     2      58.944  39.722  42.878  1.00  0.00     0.159 C 
BRANCH  22  23
ATOM     23  C   ILE     2      59.876  38.746  43.625  1.00  0.00     0.251 C 
ATOM     24  O   ILE     2      59.924  37.560  43.303  1.00  0.00    -0.271 OA
ATOM     25  N   TRP     3      60.650  39.291  44.558  1.00  0.00    -0.337 N 
ATOM     26  H   TRP     3      60.703  40.279  44.695  1.00 99.99     0.164 HD
BRANCH  25  27
ATOM     27  CA  TRP     3      61.517  38.509  45.460  1.00  0.00     0.164 C 
BRANCH  27  28
ATOM     28  CB  TRP     3      62.991  38.810  45.168  1.00  0.00     0.059 C 
BRANCH  28  29
ATOM     29  CG  TRP     3      63.410  38.693  43.698  1.00  0.00    -0.016 A 
ATOM     30  CD2 TRP     3      63.718  39.786  42.906  1.00  0.00    -0.001 A 
ATOM     31  CE3 TRP     3      63.597  41.150  43.118  1.00  0.00     0.014 A 
ATOM     32  CE2 TRP     3      64.299  39.297  41.748  1.00  0.00     0.042 A 
ATOM     33  CZ3 TRP     3      64.078  42.041  42.170  1.00  0.00     0.001 A 
ATOM     34  CH2 TRP     3      64.654  41.558  40.998  1.00  0.00     0.002 A 
ATOM     35  CZ2 TRP     3      64.757  40.188  40.783  1.00  0.00     0.030 A 
ATOM     36  NE1 TRP     3      64.335  37.970  41.857  1.00  0.00    -0.365 N 
ATOM     37  CD1 TRP     3      63.791  37.609  43.020  1.00  0.00     0.097 A 
ATOM     38  HE1 TRP     3      64.762  37.345  41.203  1.00 99.99     0.165 HD
ENDBRANCH  28  29
ENDBRANCH  27  28
BRANCH  27  39
ATOM     39  C   TRP     3      61.196  38.846  46.920  1.00  0.00     0.251 C 
ATOM     40  O   TRP     3      60.057  39.163  47.266  1.00  0.00    -0.271 OA
ATOM     41  N   VAL     4      62.173  38.579  47.778  1.00  0.00    -0.338 N 
ATOM     42  H   VAL     4      63.064  38.241  47.477  1.00 99.99     0.164 HD
BRANCH  41  43
ATOM     43  CA  VAL     4      62.050  38.800  49.234  1.00  0.00     0.159 C 
BRANCH  43  44
ATOM     44  CB  VAL     4      61.879  37.457  49.977  1.00  0.00     0.029 C 
ATOM     45  CG1 VAL     4      62.591  36.306  49.254  1.00  0.00     0.002 C 
ATOM     46  CG2 VAL     4      62.405  37.529  51.416  1.00  0.00     0.002 C 
ENDBRANCH  43  44
BRANCH  43  47
ATOM     47  C   VAL     4      63.291  39.568  49.717  1.00  0.00     0.251 C 
ATOM     48  N   ILE     5      64.361  39.468  48.930  1.00  0.00    -0.338 N 
ATOM     49  H   ILE     5      64.366  38.840  48.152  1.00 99.99     0.164 HD
ATOM     50  O   VAL     4      63.233  40.273  50.722  1.00  0.00    -0.271 OA
BRANCH  48  51
ATOM     51  CA  ILE     5      65.673  40.115  49.186  1.00  0.00     0.159 C 
BRANCH  51  52
ATOM     52  C   ILE     5      65.779  41.637  48.926  1.00  0.00     0.251 C 
ATOM     53  N   ARG     6      64.632  42.291  48.757  1.00  0.00    -0.338 N 
ATOM     54  H   ARG     6      63.756  41.823  48.843  1.00 99.99     0.164 HD
ATOM     55  O   ILE     5      66.878  42.181  48.848  1.00  0.00    -0.271 OA
BRANCH  53  56
ATOM     56  CA  ARG     6      64.505  43.758  48.680  1.00  0.00     0.159 C 
BRANCH  56  57
ATOM     57  C   ARG     6      63.119  44.082  49.257  1.00  0.00     0.251 C 
ATOM     58  N   TRP     7      62.434  42.999  49.596  1.00  0.00    -0.337 N 
ATOM     59  H   TRP     7      62.814  42.084  49.487  1.00 99.99     0.164 HD
ATOM     60  O   ARG     6      62.605  45.191  49.103  1.00  0.00    -0.271 OA
BRANCH  58  61
ATOM     61  CA  TRP     7      61.044  43.027  50.084  1.00  0.00     0.164 C 
BRANCH  61  62
ATOM     62  CB  TRP     7      60.215  41.976  49.334  1.00  0.00     0.059 C 
BRANCH  62  63
ATOM     63  CG  TRP     7      59.342  42.618  48.250  1.00  0.00    -0.016 A 
ATOM     64  CD2 TRP     7      59.704  42.861  46.936  1.00  0.00    -0.001 A 
ATOM     65  CE2 TRP     7      58.625  43.492  46.338  1.00  0.00     0.042 A 
ATOM     66  CE3 TRP     7      60.865  42.613  46.216  1.00  0.00     0.014 A 
ATOM     67  NE1 TRP     7      57.675  43.612  47.264  1.00  0.00    -0.365 N 
ATOM     68  CZ2 TRP     7      58.706  43.879  45.005  1.00  0.00     0.030 A 
ATOM     69  HE1 TRP     7      56.783  44.047  47.132  1.00 99.99     0.165 HD
ATOM     70  CD1 TRP     7      58.107  43.086  48.411  1.00  0.00     0.097 A 
ATOM     71  CH2 TRP     7      59.868  43.636  44.279  1.00  0.00     0.002 A 
ATOM     72  CZ3 TRP     7      60.949  43.007  44.887  1.00  0.00     0.001 A 
ENDBRANCH  62  63
ENDBRANCH  61  62
BRANCH  61  73
ATOM     73  C   TRP     7      60.916  42.849  51.605  1.00  0.00     0.251 C 
ATOM     74  O   TRP     7      61.452  43.620  52.399  1.00  0.00    -0.271 OA
ATOM     75  N   ARG     8      59.985  41.966  51.942  1.00  0.00    -0.336 N 
ATOM     76  H   ARG     8      59.445  41.508  51.238  1.00 99.99     0.164 HD
BRANCH  75  77
ATOM     77  CA  ARG     8      59.696  41.513  53.321  1.00  0.00     0.168 C 
BRANCH  77  78
ATOM     78  CB  ARG     8      58.188  41.340  53.526  1.00  0.00     0.035 C 
BRANCH  78  79
ATOM     79  CG  ARG     8      57.307  41.662  52.319  1.00  0.00     0.027 C 
BRANCH  79  80
ATOM     80  CD  ARG     8      55.902  41.937  52.848  1.00  0.00     0.116 C 
BRANCH  80  81
ATOM     81  NE  ARG     8      55.076  40.721  52.802  1.00  0.00    -0.212 N 
ATOM     82  HE  ARG     8      54.791  40.435  51.889  1.00 99.99     0.178 HD
ATOM     83  CZ  ARG     8      54.719  39.989  53.860  1.00  0.00     0.666 C 
ATOM     84  NH1 ARG     8      55.132  40.286  55.086  1.00  0.00    -0.235 N 
ATOM     85  NH2 ARG     8      53.888  38.967  53.717  1.00  0.00    -0.235 N 
ATOM     86 2HH1 ARG     8      55.732  41.075  55.211  1.00 99.99     0.174 HD
ATOM     87 1HH1 ARG     8      54.854  39.732  55.867  1.00 99.99     0.174 HD
ATOM     88 2HH2 ARG     8      53.519  38.739  52.819  1.00 99.99     0.174 HD
ATOM     89 1HH2 ARG     8      53.625  38.435  54.518  1.00 99.99     0.174 HD
ENDBRANCH  80  81
ENDBRANCH  79  80
ENDBRANCH  78  79
ENDBRANCH  77  78
BRANCH  77  90
ATOM     90  C   ARG     8      60.319  40.119  53.495  1.00  0.00     0.206 C 
ATOM     91  O   ARG     8      59.565  39.123  53.471  1.00 99.99    -0.646 OA
ATOM     92  OXT ARG     8      61.541  40.120  53.775  1.00 99.99    -0.646 OA
ENDBRANCH  77  90
ENDBRANCH  75  77
ENDBRANCH  61  73
ENDBRANCH  58  61
ENDBRANCH  56  57
BRANCH  56  93
ATOM     93  CB  ARG     6      64.573  44.246  47.228  1.00  0.00     0.034 C 
BRANCH  93  94
ATOM     94  CG  ARG     6      64.504  43.130  46.180  1.00  0.00     0.027 C 
BRANCH  94  95
ATOM     95  CD  ARG     6      65.753  43.130  45.292  1.00  0.00     0.116 C 
BRANCH  95  96
ATOM     96  NE  ARG     6      66.981  43.246  46.106  1.00  0.00    -0.212 N 
ATOM     97  HE  ARG     6      66.829  43.523  47.052  1.00 99.99     0.178 HD
ATOM     98  CZ  ARG     6      68.235  43.035  45.696  1.00  0.00     0.666 C 
ATOM     99  NH2 ARG     6      69.248  43.196  46.537  1.00  0.00    -0.235 N 
ATOM    100  NH1 ARG     6      68.511  42.684  44.447  1.00  0.00    -0.235 N 
ATOM    101 2HH2 ARG     6      69.081  43.469  47.483  1.00 99.99     0.174 HD
ATOM    102 1HH2 ARG     6      70.180  43.032  46.222  1.00 99.99     0.174 HD
ATOM    103 2HH1 ARG     6      67.753  42.571  43.805  1.00 99.99     0.174 HD
ATOM    104 1HH1 ARG     6      69.451  42.526  44.156  1.00 99.99     0.174 HD
ENDBRANCH  95  96
ENDBRANCH  94  95
ENDBRANCH  93  94
ENDBRANCH  56  93
ENDBRANCH  53  56
ENDBRANCH  51  52
BRANCH  51 105
ATOM    105  CB  ILE     5      66.806  39.365  48.457  1.00  0.00     0.029 C 
ATOM    106  CG2 ILE     5      67.466  38.365  49.420  1.00  0.00     0.002 C 
BRANCH 105 107
ATOM    107  CG1 ILE     5      66.322  38.720  47.145  1.00  0.00     0.002 C 
ATOM    108  CD  ILE     5      66.568  39.575  45.895  1.00  0.00     0.000 C 
ENDBRANCH 105 107
ENDBRANCH  51 105
ENDBRANCH  48  51
ENDBRANCH  43  47
ENDBRANCH  41  43
ENDBRANCH  27  39
ENDBRANCH  25  27
ENDBRANCH  22  23
BRANCH  22 109
ATOM    109  CB  ILE     2      59.725  40.800  42.086  1.00  0.00     0.029 C 
ATOM    110  CG2 ILE     2      60.605  40.171  40.990  1.00  0.00     0.002 C 
BRANCH 109 111
ATOM    111  CG1 ILE     2      58.762  41.831  41.466  1.00  0.00     0.002 C 
ATOM    112  CD  ILE     2      58.533  41.675  39.955  1.00  0.00     0.000 C 
ENDBRANCH 109 111
ENDBRANCH  22 109
ENDBRANCH  20  22
ENDBRANCH   5  18
ENDBRANCH   1   5
TORSDOF 37
ENDMDL
MODEL 3
REMARK VINA RESULT:      -4.7      2.687      5.346
REMARK WARNING: 32 MAX_TORS EXCEEDED!!!
REMARK  37 active torsions:
REMARK  status: ('A' for Active; 'I' for Inactive)
REMARK    1  A    between atoms: N_1  and  CA_2 
REMARK    2  A    between atoms: CA_2  and  CB_5 
REMARK    3  A    between atoms: CA_2  and  C_3 
REMARK       I    between atoms: C_3  and  N_20 
REMARK    4  A    between atoms: CB_5  and  CG_6 
REMARK    5  A    between atoms: CG_6  and  CD_7 
REMARK    6  A    between atoms: CD_7  and  NE_8 
REMARK       I    between atoms: NE_8  and  CZ_9 
REMARK       I    between atoms: CZ_9  and  NH1_10 
REMARK       I    between atoms: CZ_9  and  NH2_11 
REMARK    7  A    between atoms: N_20  and  CA_21 
REMARK    8  A    between atoms: CA_21  and  C_22 
REMARK    9  A    between atoms: CA_21  and  CB_24 
REMARK       I    between atoms: C_22  and  N_29 
REMARK   10  A    between atoms: CB_24  and  CG1_25 
REMARK   11  A    between atoms: N_29  and  CA_30 
REMARK   12  A    between atoms: CA_30  and  CB_33 
REMARK   13  A    between atoms: CA_30  and  C_31 
REMARK       I    between atoms: C_31  and  N_45 
REMARK   14  A    between atoms: CB_33  and  CG_34 
REMARK   15  A    between atoms: N_45  and  CA_46 
REMARK   16  A    between atoms: CA_46  and  CB_49 
REMARK   17  A    between atoms: CA_46  and  C_47 
REMARK       I    between atoms: C_47  and  N_53 
REMARK   18  A    between atoms: N_53  and  CA_54 
REMARK   19  A    between atoms: CA_54  and  C_55 
REMARK   20  A    between atoms: CA_54  and  CB_57 
REMARK       I    between atoms: C_55  and  N_62 
REMARK   21  A    between atoms: CB_57  and  CG1_58 
REMARK   22  A    between atoms: N_62  and  CA_63 
REMARK   23  A    between atoms: CA_63  and  C_64 
REMARK   24  A    between atoms: CA_63  and  CB_66 
REMARK       I    between atoms: C_64  and  N_79 
REMARK   25  A    between atoms: CB_66  and  CG_67 
REMARK   26  A    between atoms: CG_67  and  CD_68 
REMARK   27  A    between atoms: CD_68  and  NE_69 
REMARK       I    between atoms: NE_69  and  CZ_70 
REMARK       I    between atoms: CZ_70  and  NH2_72 
REMARK       I    between atoms: CZ_70  and  NH1_71 
REMARK   28  A    between atoms: N_79  and  CA_80 
REMARK   29  A    between atoms: CA_80  and  CB_83 
REMARK   30  A    between atoms: CA_80  and  C_81 
REMARK       I    between atoms: C_81  and  N_95 
REMARK   31  A    between atoms: CB_83  and  CG_84 
REMARK   32  A    between atoms: N_95  and  CA_96 
REMARK   33  A    between atoms: CA_96  and  CB_99 
REMARK   34  A    between atoms: CA_96  and  C_97 
REMARK   35  A    between atoms: CB_99  and  CG_100 
REMARK   36  A    between atoms: CG_100  and  CD_101 
REMARK   37  A    between atoms: CD_101  and  NE_102 
REMARK       I    between atoms: NE_102  and  CZ_103 
REMARK       I    between atoms: CZ_103  and  NH1_104 
ROOT
ATOM      1  N   ARG     1      58.713  44.348  46.642  1.00  0.00    -0.058 N 
ATOM      2  H1  ARG     1      59.508  44.130  46.073  1.00 99.99     0.276 HD
ATOM      3  H2  ARG     1      57.942  44.491  46.045  1.00 99.99     0.276 HD
ATOM      4  H3  ARG     1      58.860  45.217  47.090  1.00 99.99     0.276 HD
ENDROOT
BRANCH   1   5
ATOM      5  CA  ARG     1      58.510  43.216  47.580  1.00  0.00     0.255 C 
BRANCH   5   6
ATOM      6  CB  ARG     1      59.642  43.168  48.628  1.00  0.00     0.042 C 
BRANCH   6   7
ATOM      7  CG  ARG     1      60.999  43.679  48.110  1.00  0.00     0.027 C 
BRANCH   7   8
ATOM      8  CD  ARG     1      61.966  44.109  49.224  1.00  0.00     0.116 C 
BRANCH   8   9
ATOM      9  NE  ARG     1      62.367  45.527  49.113  1.00  0.00    -0.212 N 
ATOM     10  CZ  ARG     1      63.515  46.064  49.546  1.00  0.00     0.666 C 
ATOM     11  NH1 ARG     1      64.453  45.344  50.147  1.00  0.00    -0.235 N 
ATOM     12  NH2 ARG     1      63.757  47.357  49.371  1.00  0.00    -0.235 N 
ATOM     13 2HH1 ARG     1      64.302  44.366  50.285  1.00 99.99     0.174 HD
ATOM     14 1HH1 ARG     1      65.303  45.770  50.450  1.00 99.99     0.174 HD
ATOM     15 1HH2 ARG     1      64.621  47.744  49.691  1.00 99.99     0.174 HD
ATOM     16 2HH2 ARG     1      63.087  47.946  48.924  1.00 99.99     0.174 HD
ATOM     17  HE  ARG     1      61.691  46.132  48.699  1.00 99.99     0.178 HD
ENDBRANCH   8   9
ENDBRANCH   7   8
ENDBRANCH   6   7
ENDBRANCH   5   6
BRANCH   5  18
ATOM     18  C   ARG     1      57.156  43.416  48.297  1.00  0.00     0.259 C 
ATOM     19  O   ARG     1      56.450  44.382  48.012  1.00  0.00    -0.271 OA
ATOM     20  N   ILE     2      56.750  42.434  49.100  1.00  0.00    -0.338 N 
ATOM     21  H   ILE     2      57.286  41.607  49.266  1.00 99.99     0.164 HD
BRANCH  20  22
ATOM     22  CA  ILE     2      55.496  42.507  49.883  1.00  0.00     0.159 C 
BRANCH  22  23
ATOM     23  C   ILE     2      55.883  42.674  51.366  1.00  0.00     0.251 C 
ATOM     24  O   ILE     2      55.588  43.701  51.975  1.00  0.00    -0.271 OA
ATOM     25  N   TRP     3      56.469  41.622  51.929  1.00  0.00    -0.337 N 
ATOM     26  H   TRP     3      56.558  40.746  51.456  1.00 99.99     0.164 HD
BRANCH  25  27
ATOM     27  CA  TRP     3      57.019  41.629  53.297  1.00  0.00     0.164 C 
BRANCH  27  28
ATOM     28  CB  TRP     3      56.886  40.239  53.928  1.00  0.00     0.059 C 
BRANCH  28  29
ATOM     29  CG  TRP     3      56.565  39.100  52.953  1.00  0.00    -0.016 A 
ATOM     30  CD2 TRP     3      55.285  38.820  52.506  1.00  0.00    -0.001 A 
ATOM     31  CE3 TRP     3      54.043  39.309  52.879  1.00  0.00     0.014 A 
ATOM     32  CE2 TRP     3      55.408  37.923  51.457  1.00  0.00     0.042 A 
ATOM     33  CZ3 TRP     3      52.909  38.911  52.186  1.00  0.00     0.001 A 
ATOM     34  CH2 TRP     3      53.023  38.003  51.138  1.00  0.00     0.002 A 
ATOM     35  CZ2 TRP     3      54.270  37.502  50.778  1.00  0.00     0.030 A 
ATOM     36  NE1 TRP     3      56.709  37.689  51.292  1.00  0.00    -0.365 N 
ATOM     37  CD1 TRP     3      57.399  38.385  52.196  1.00  0.00     0.097 A 
ATOM     38  HE1 TRP     3      57.112  37.133  50.564  1.00 99.99     0.165 HD
ENDBRANCH  28  29
ENDBRANCH  27  28
BRANCH  27  39
ATOM     39  C   TRP     3      58.494  42.048  53.269  1.00  0.00     0.251 C 
ATOM     40  O   TRP     3      58.818  43.227  53.126  1.00  0.00    -0.271 OA
ATOM     41  N   VAL     4      59.348  41.089  53.602  1.00  0.00    -0.338 N 
ATOM     42  H   VAL     4      59.049  40.156  53.797  1.00 99.99     0.164 HD
BRANCH  41  43
ATOM     43  CA  VAL     4      60.809  41.300  53.668  1.00  0.00     0.159 C 
BRANCH  43  44
ATOM     44  CB  VAL     4      61.497  40.137  54.416  1.00  0.00     0.029 C 
ATOM     45  CG1 VAL     4      62.189  40.610  55.701  1.00  0.00     0.002 C 
ATOM     46  CG2 VAL     4      60.506  39.023  54.776  1.00  0.00     0.002 C 
ENDBRANCH  43  44
BRANCH  43  47
ATOM     47  C   VAL     4      61.345  41.456  52.235  1.00  0.00     0.251 C 
ATOM     48  N   ILE     5      61.208  40.381  51.460  1.00  0.00    -0.338 N 
ATOM     49  H   ILE     5      60.884  39.515  51.840  1.00 99.99     0.164 HD
ATOM     50  O   VAL     4      61.791  42.534  51.851  1.00  0.00    -0.271 OA
BRANCH  48  51
ATOM     51  CA  ILE     5      61.649  40.286  50.045  1.00  0.00     0.159 C 
BRANCH  51  52
ATOM     52  C   ILE     5      60.740  39.502  49.068  1.00  0.00     0.251 C 
ATOM     53  N   ARG     6      60.573  40.030  47.858  1.00  0.00    -0.338 N 
ATOM     54  H   ARG     6      61.051  40.864  47.590  1.00 99.99     0.164 HD
ATOM     55  O   ILE     5      60.185  38.466  49.429  1.00  0.00    -0.271 OA
BRANCH  53  56
ATOM     56  CA  ARG     6      59.901  39.356  46.732  1.00  0.00     0.159 C 
BRANCH  56  57
ATOM     57  C   ARG     6      60.415  40.058  45.466  1.00  0.00     0.251 C 
ATOM     58  N   TRP     7      61.202  41.092  45.731  1.00  0.00    -0.337 N 
ATOM     59  H   TRP     7      61.428  41.351  46.667  1.00 99.99     0.164 HD
ATOM     60  O   ARG     6      59.882  39.872  44.370  1.00  0.00    -0.271 OA
BRANCH  58  61
ATOM     61  CA  TRP     7      61.750  41.991  44.701  1.00  0.00     0.164 C 
BRANCH  61  62
ATOM     62  CB  TRP     7      62.684  41.203  43.774  1.00  0.00     0.059 C 
BRANCH  62  63
ATOM     63  CG  TRP     7      64.155  41.545  44.036  1.00  0.00    -0.016 A 
ATOM     64  CD2 TRP     7      64.642  42.406  45.006  1.00  0.00    -0.001 A 
ATOM     65  CE2 TRP     7      66.018  42.445  44.846  1.00  0.00     0.042 A 
ATOM     66  CE3 TRP     7      64.023  43.165  45.990  1.00  0.00     0.014 A 
ATOM     67  NE1 TRP     7      66.320  41.642  43.826  1.00  0.00    -0.365 N 
ATOM     68  CZ2 TRP     7      66.785  43.252  45.678  1.00  0.00     0.030 A 
ATOM     69  HE1 TRP     7      67.238  41.482  43.463  1.00 99.99     0.165 HD
ATOM     70  CD1 TRP     7      65.200  41.103  43.342  1.00  0.00     0.097 A 
ATOM     71  CH2 TRP     7      66.170  44.018  46.664  1.00  0.00     0.002 A 
ATOM     72  CZ3 TRP     7      64.788  43.978  46.816  1.00  0.00     0.001 A 
ENDBRANCH  62  63
ENDBRANCH  61  62
BRANCH  61  73
ATOM     73  C   TRP     7      60.676  42.739  43.896  1.00  0.00     0.251 C 
ATOM     74  O   TRP     7      60.174  43.789  44.295  1.00  0.00    -0.271 OA
ATOM     75  N   ARG     8      60.551  42.283  42.656  1.00  0.00    -0.336 N 
ATOM     76  H   ARG     8      61.134  41.539  42.332  1.00 99.99     0.164 HD
BRANCH  75  77
ATOM     77  CA  ARG     8      59.540  42.737  41.676  1.00  0.00     0.168 C 
BRANCH  77  78
ATOM     78  CB  ARG     8      60.124  42.733  40.259  1.00  0.00     0.035 C 
BRANCH  78  79
ATOM     79  CG  ARG     8      59.839  43.975  39.415  1.00  0.00     0.027 C 
BRANCH  79  80
ATOM     80  CD  ARG     8      59.802  43.528  37.956  1.00  0.00     0.116 C 
BRANCH  80  81
ATOM     81  NE  ARG     8      58.650  44.116  37.255  1.00  0.00    -0.212 N 
ATOM     82  HE  ARG     8      58.020  44.632  37.832  1.00 99.99     0.178 HD
ATOM     83  CZ  ARG     8      58.419  44.030  35.943  1.00  0.00     0.666 C 
ATOM     84  NH1 ARG     8      59.265  43.418  35.123  1.00  0.00    -0.235 N 
ATOM     85  NH2 ARG     8      57.297  44.512  35.429  1.00  0.00    -0.235 N 
ATOM     86 2HH1 ARG     8      60.098  43.021  35.504  1.00 99.99     0.174 HD
ATOM     87 1HH1 ARG     8      59.076  43.359  34.146  1.00 99.99     0.174 HD
ATOM     88 2HH2 ARG     8      56.615  44.939  36.018  1.00 99.99     0.174 HD
ATOM     89 1HH2 ARG     8      57.135  44.433  34.448  1.00 99.99     0.174 HD
ENDBRANCH  80  81
ENDBRANCH  79  80
ENDBRANCH  78  79
ENDBRANCH  77  78
BRANCH  77  90
ATOM     90  C   ARG     8      58.397  41.709  41.674  1.00  0.00     0.206 C 
ATOM     91  O   ARG     8      58.199  41.040  40.638  1.00 99.99    -0.646 OA
ATOM     92  OXT ARG     8      57.674  41.727  42.699  1.00 99.99    -0.646 OA
ENDBRANCH  77  90
ENDBRANCH  75  77
ENDBRANCH  61  73
ENDBRANCH  58  61
ENDBRANCH  56  57
BRANCH  56  93
ATOM     93  CB  ARG     6      58.379  39.518  46.815  1.00  0.00     0.034 C 
BRANCH  93  94
ATOM     94  CG  ARG     6      57.613  38.210  47.042  1.00  0.00     0.027 C 
BRANCH  94  95
ATOM     95  CD  ARG     6      56.659  37.921  45.878  1.00  0.00     0.116 C 
BRANCH  95  96
ATOM     96  NE  ARG     6      57.380  37.926  44.589  1.00  0.00    -0.212 N 
ATOM     97  HE  ARG     6      58.253  37.443  44.598  1.00 99.99     0.178 HD
ATOM     98  CZ  ARG     6      56.988  38.514  43.455  1.00  0.00     0.666 C 
ATOM     99  NH2 ARG     6      57.751  38.451  42.372  1.00  0.00    -0.235 N 
ATOM    100  NH1 ARG     6      55.849  39.190  43.378  1.00  0.00    -0.235 N 
ATOM    101 2HH2 ARG     6      58.620  37.960  42.394  1.00 99.99     0.174 HD
ATOM    102 1HH2 ARG     6      57.447  38.889  41.530  1.00 99.99     0.174 HD
ATOM    103 2HH1 ARG     6      55.274  39.249  44.193  1.00 99.99     0.174 HD
ATOM    104 1HH1 ARG     6      55.567  39.620  42.524  1.00 99.99     0.174 HD
ENDBRANCH  95  96
ENDBRANCH  94  95
ENDBRANCH  93  94
ENDBRANCH  56  93
ENDBRANCH  53  56
ENDBRANCH  51  52
BRANCH  51 105
ATOM    105  CB  ILE     5      63.100  39.775  49.955  1.00  0.00     0.029 C 
ATOM    106  CG2 ILE     5      64.046  40.955  49.672  1.00  0.00     0.002 C 
BRANCH 105 107
ATOM    107  CG1 ILE     5      63.503  38.956  51.195  1.00  0.00     0.002 C 
ATOM    108  CD  ILE     5      64.753  39.477  51.916  1.00  0.00     0.000 C 
ENDBRANCH 105 107
ENDBRANCH  51 105
ENDBRANCH  48  51
ENDBRANCH  43  47
ENDBRANCH  41  43
ENDBRANCH  27  39
ENDBRANCH  25  27
ENDBRANCH  22  23
BRANCH  22 109
ATOM    109  CB  ILE     2      54.642  41.240  49.630  1.00  0.00     0.029 C 
ATOM    110  CG2 ILE     2      53.136  41.563  49.626  1.00  0.00     0.002 C 
BRANCH 109 111
ATOM    111  CG1 ILE     2      55.043  40.562  48.306  1.00  0.00     0.002 C 
ATOM    112  CD  ILE     2      53.917  39.778  47.614  1.00  0.00     0.000 C 
ENDBRANCH 109 111
ENDBRANCH  22 109
ENDBRANCH  20  22
ENDBRANCH   5  18
ENDBRANCH   1   5
TORSDOF 37
ENDMDL
MODEL 4
REMARK VINA RESULT:      -4.6      1.940      4.322
REMARK WARNING: 32 MAX_TORS EXCEEDED!!!
REMARK  37 active torsions:
REMARK  status: ('A' for Active; 'I' for Inactive)
REMARK    1  A    between atoms: N_1  and  CA_2 
REMARK    2  A    between atoms: CA_2  and  CB_5 
REMARK    3  A    between atoms: CA_2  and  C_3 
REMARK       I    between atoms: C_3  and  N_20 
REMARK    4  A    between atoms: CB_5  and  CG_6 
REMARK    5  A    between atoms: CG_6  and  CD_7 
REMARK    6  A    between atoms: CD_7  and  NE_8 
REMARK       I    between atoms: NE_8  and  CZ_9 
REMARK       I    between atoms: CZ_9  and  NH1_10 
REMARK       I    between atoms: CZ_9  and  NH2_11 
REMARK    7  A    between atoms: N_20  and  CA_21 
REMARK    8  A    between atoms: CA_21  and  C_22 
REMARK    9  A    between atoms: CA_21  and  CB_24 
REMARK       I    between atoms: C_22  and  N_29 
REMARK   10  A    between atoms: CB_24  and  CG1_25 
REMARK   11  A    between atoms: N_29  and  CA_30 
REMARK   12  A    between atoms: CA_30  and  CB_33 
REMARK   13  A    between atoms: CA_30  and  C_31 
REMARK       I    between atoms: C_31  and  N_45 
REMARK   14  A    between atoms: CB_33  and  CG_34 
REMARK   15  A    between atoms: N_45  and  CA_46 
REMARK   16  A    between atoms: CA_46  and  CB_49 
REMARK   17  A    between atoms: CA_46  and  C_47 
REMARK       I    between atoms: C_47  and  N_53 
REMARK   18  A    between atoms: N_53  and  CA_54 
REMARK   19  A    between atoms: CA_54  and  C_55 
REMARK   20  A    between atoms: CA_54  and  CB_57 
REMARK       I    between atoms: C_55  and  N_62 
REMARK   21  A    between atoms: CB_57  and  CG1_58 
REMARK   22  A    between atoms: N_62  and  CA_63 
REMARK   23  A    between atoms: CA_63  and  C_64 
REMARK   24  A    between atoms: CA_63  and  CB_66 
REMARK       I    between atoms: C_64  and  N_79 
REMARK   25  A    between atoms: CB_66  and  CG_67 
REMARK   26  A    between atoms: CG_67  and  CD_68 
REMARK   27  A    between atoms: CD_68  and  NE_69 
REMARK       I    between atoms: NE_69  and  CZ_70 
REMARK       I    between atoms: CZ_70  and  NH2_72 
REMARK       I    between atoms: CZ_70  and  NH1_71 
REMARK   28  A    between atoms: N_79  and  CA_80 
REMARK   29  A    between atoms: CA_80  and  CB_83 
REMARK   30  A    between atoms: CA_80  and  C_81 
REMARK       I    between atoms: C_81  and  N_95 
REMARK   31  A    between atoms: CB_83  and  CG_84 
REMARK   32  A    between atoms: N_95  and  CA_96 
REMARK   33  A    between atoms: CA_96  and  CB_99 
REMARK   34  A    between atoms: CA_96  and  C_97 
REMARK   35  A    between atoms: CB_99  and  CG_100 
REMARK   36  A    between atoms: CG_100  and  CD_101 
REMARK   37  A    between atoms: CD_101  and  NE_102 
REMARK       I    between atoms: NE_102  and  CZ_103 
REMARK       I    between atoms: CZ_103  and  NH1_104 
ROOT
ATOM      1  N   ARG     1      59.654  44.040  47.883  1.00  0.00    -0.058 N 
ATOM      2  H1  ARG     1      60.324  43.573  47.304  1.00 99.99     0.276 HD
ATOM      3  H2  ARG     1      60.078  44.853  48.245  1.00 99.99     0.276 HD
ATOM      4  H3  ARG     1      59.455  43.477  48.671  1.00 99.99     0.276 HD
ENDROOT
BRANCH   1   5
ATOM      5  CA  ARG     1      58.467  44.337  47.043  1.00  0.00     0.255 C 
BRANCH   5   6
ATOM      6  CB  ARG     1      58.516  43.534  45.726  1.00  0.00     0.042 C 
BRANCH   6   7
ATOM      7  CG  ARG     1      59.671  43.933  44.791  1.00  0.00     0.027 C 
BRANCH   7   8
ATOM      8  CD  ARG     1      60.205  42.775  43.935  1.00  0.00     0.116 C 
BRANCH   8   9
ATOM      9  NE  ARG     1      59.136  42.085  43.182  1.00  0.00    -0.212 N 
ATOM     10  CZ  ARG     1      58.715  42.384  41.946  1.00  0.00     0.666 C 
ATOM     11  NH1 ARG     1      59.240  43.376  41.238  1.00  0.00    -0.235 N 
ATOM     12  NH2 ARG     1      57.750  41.672  41.377  1.00  0.00    -0.235 N 
ATOM     13 2HH1 ARG     1      59.974  43.922  41.637  1.00 99.99     0.174 HD
ATOM     14 1HH1 ARG     1      58.913  43.568  40.315  1.00 99.99     0.174 HD
ATOM     15 1HH2 ARG     1      57.451  41.900  40.451  1.00 99.99     0.174 HD
ATOM     16 2HH2 ARG     1      57.320  40.914  41.864  1.00 99.99     0.174 HD
ATOM     17  HE  ARG     1      58.676  41.348  43.671  1.00 99.99     0.178 HD
ENDBRANCH   8   9
ENDBRANCH   7   8
ENDBRANCH   6   7
ENDBRANCH   5   6
BRANCH   5  18
ATOM     18  C   ARG     1      57.200  43.946  47.836  1.00  0.00     0.259 C 
ATOM     19  O   ARG     1      56.163  44.591  47.689  1.00  0.00    -0.271 OA
ATOM     20  N   ILE     2      57.258  42.821  48.546  1.00  0.00    -0.338 N 
ATOM     21  H   ILE     2      58.076  42.249  48.597  1.00 99.99     0.164 HD
BRANCH  20  22
ATOM     22  CA  ILE     2      56.136  42.345  49.386  1.00  0.00     0.159 C 
BRANCH  22  23
ATOM     23  C   ILE     2      56.531  42.571  50.860  1.00  0.00     0.251 C 
ATOM     24  O   ILE     2      56.101  43.544  51.478  1.00  0.00    -0.271 OA
ATOM     25  N   TRP     3      57.283  41.621  51.405  1.00  0.00    -0.337 N 
ATOM     26  H   TRP     3      57.491  40.768  50.929  1.00 99.99     0.164 HD
BRANCH  25  27
ATOM     27  CA  TRP     3      57.861  41.713  52.760  1.00  0.00     0.164 C 
BRANCH  27  28
ATOM     28  CB  TRP     3      57.436  40.505  53.599  1.00  0.00     0.059 C 
BRANCH  28  29
ATOM     29  CG  TRP     3      55.938  40.176  53.573  1.00  0.00    -0.016 A 
ATOM     30  CD2 TRP     3      55.380  39.240  52.719  1.00  0.00    -0.001 A 
ATOM     31  CE3 TRP     3      55.904  38.527  51.652  1.00  0.00     0.014 A 
ATOM     32  CE2 TRP     3      54.083  39.019  53.151  1.00  0.00     0.042 A 
ATOM     33  CZ3 TRP     3      55.129  37.568  51.017  1.00  0.00     0.001 A 
ATOM     34  CH2 TRP     3      53.821  37.347  51.438  1.00  0.00     0.002 A 
ATOM     35  CZ2 TRP     3      53.295  38.077  52.499  1.00  0.00     0.030 A 
ATOM     36  NE1 TRP     3      53.888  39.791  54.219  1.00  0.00    -0.365 N 
ATOM     37  CD1 TRP     3      54.996  40.492  54.463  1.00  0.00     0.097 A 
ATOM     38  HE1 TRP     3      53.066  39.797  54.790  1.00 99.99     0.165 HD
ENDBRANCH  28  29
ENDBRANCH  27  28
BRANCH  27  39
ATOM     39  C   TRP     3      59.391  41.777  52.675  1.00  0.00     0.251 C 
ATOM     40  O   TRP     3      59.982  42.856  52.623  1.00  0.00    -0.271 OA
ATOM     41  N   VAL     4      60.004  40.614  52.860  1.00  0.00    -0.338 N 
ATOM     42  H   VAL     4      59.498  39.762  52.985  1.00 99.99     0.164 HD
BRANCH  41  43
ATOM     43  CA  VAL     4      61.474  40.470  52.851  1.00  0.00     0.159 C 
BRANCH  43  44
ATOM     44  CB  VAL     4      62.002  40.169  54.271  1.00  0.00     0.029 C 
ATOM     45  CG1 VAL     4      62.754  41.366  54.869  1.00  0.00     0.002 C 
ATOM     46  CG2 VAL     4      60.873  39.773  55.230  1.00  0.00     0.002 C 
ENDBRANCH  43  44
BRANCH  43  47
ATOM     47  C   VAL     4      61.849  39.361  51.855  1.00  0.00     0.251 C 
ATOM     48  N   ILE     5      60.843  38.906  51.109  1.00  0.00    -0.338 N 
ATOM     49  H   ILE     5      59.903  39.198  51.286  1.00 99.99     0.164 HD
ATOM     50  O   VAL     4      63.017  39.001  51.734  1.00  0.00    -0.271 OA
BRANCH  48  51
ATOM     51  CA  ILE     5      60.954  37.838  50.083  1.00  0.00     0.159 C 
BRANCH  51  52
ATOM     52  C   ILE     5      61.448  38.254  48.675  1.00  0.00     0.251 C 
ATOM     53  N   ARG     6      60.521  38.688  47.825  1.00  0.00    -0.338 N 
ATOM     54  H   ARG     6      59.568  38.781  48.106  1.00 99.99     0.164 HD
ATOM     55  O   ILE     5      62.634  38.144  48.374  1.00  0.00    -0.271 OA
BRANCH  53  56
ATOM     56  CA  ARG     6      60.804  39.297  46.512  1.00  0.00     0.159 C 
BRANCH  56  57
ATOM     57  C   ARG     6      61.346  40.701  46.818  1.00  0.00     0.251 C 
ATOM     58  N   TRP     7      62.647  40.814  46.591  1.00  0.00    -0.337 N 
ATOM     59  H   TRP     7      63.186  40.051  46.244  1.00 99.99     0.164 HD
ATOM     60  O   ARG     6      60.703  41.501  47.501  1.00  0.00    -0.271 OA
BRANCH  58  61
ATOM     61  CA  TRP     7      63.431  42.025  46.892  1.00  0.00     0.164 C 
BRANCH  61  62
ATOM     62  CB  TRP     7      64.076  41.888  48.277  1.00  0.00     0.059 C 
BRANCH  62  63
ATOM     63  CG  TRP     7      63.435  42.840  49.293  1.00  0.00    -0.016 A 
ATOM     64  CD2 TRP     7      63.653  44.204  49.396  1.00  0.00    -0.001 A 
ATOM     65  CE2 TRP     7      62.905  44.644  50.477  1.00  0.00     0.042 A 
ATOM     66  CE3 TRP     7      64.436  45.092  48.671  1.00  0.00     0.014 A 
ATOM     67  NE1 TRP     7      62.279  43.581  50.982  1.00  0.00    -0.365 N 
ATOM     68  CZ2 TRP     7      62.940  45.986  50.838  1.00  0.00     0.030 A 
ATOM     69  HE1 TRP     7      61.680  43.585  51.783  1.00 99.99     0.165 HD
ATOM     70  CD1 TRP     7      62.599  42.500  50.269  1.00  0.00     0.097 A 
ATOM     71  CH2 TRP     7      63.727  46.879  50.118  1.00  0.00     0.002 A 
ATOM     72  CZ3 TRP     7      64.479  46.431  49.037  1.00  0.00     0.001 A 
ENDBRANCH  62  63
ENDBRANCH  61  62
BRANCH  61  73
ATOM     73  C   TRP     7      64.481  42.367  45.825  1.00  0.00     0.251 C 
ATOM     74  O   TRP     7      64.693  43.523  45.463  1.00  0.00    -0.271 OA
ATOM     75  N   ARG     8      65.281  41.345  45.545  1.00  0.00    -0.336 N 
ATOM     76  H   ARG     8      65.172  40.475  46.022  1.00 99.99     0.164 HD
BRANCH  75  77
ATOM     77  CA  ARG     8      66.324  41.339  44.496  1.00  0.00     0.168 C 
BRANCH  77  78
ATOM     78  CB  ARG     8      67.336  40.216  44.750  1.00  0.00     0.035 C 
BRANCH  78  79
ATOM     79  CG  ARG     8      67.524  39.803  46.209  1.00  0.00     0.027 C 
BRANCH  79  80
ATOM     80  CD  ARG     8      66.780  38.484  46.403  1.00  0.00     0.116 C 
BRANCH  80  81
ATOM     81  NE  ARG     8      65.842  38.572  47.532  1.00  0.00    -0.212 N 
ATOM     82  HE  ARG     8      64.942  38.943  47.309  1.00 99.99     0.178 HD
ATOM     83  CZ  ARG     8      66.097  38.175  48.781  1.00  0.00     0.666 C 
ATOM     84  NH1 ARG     8      67.251  37.609  49.112  1.00  0.00    -0.235 N 
ATOM     85  NH2 ARG     8      65.215  38.392  49.745  1.00  0.00    -0.235 N 
ATOM     86 2HH1 ARG     8      67.938  37.471  48.400  1.00 99.99     0.174 HD
ATOM     87 1HH1 ARG     8      67.429  37.322  50.050  1.00 99.99     0.174 HD
ATOM     88 2HH2 ARG     8      64.354  38.856  49.547  1.00 99.99     0.174 HD
ATOM     89 1HH2 ARG     8      65.424  38.097  50.675  1.00 99.99     0.174 HD
ENDBRANCH  80  81
ENDBRANCH  79  80
ENDBRANCH  78  79
ENDBRANCH  77  78
BRANCH  77  90
ATOM     90  C   ARG     8      65.640  41.009  43.159  1.00  0.00     0.206 C 
ATOM     91  O   ARG     8      65.408  39.812  42.888  1.00 99.99    -0.646 OA
ATOM     92  OXT ARG     8      65.487  41.989  42.392  1.00 99.99    -0.646 OA
ENDBRANCH  77  90
ENDBRANCH  75  77
ENDBRANCH  61  73
ENDBRANCH  58  61
ENDBRANCH  56  57
BRANCH  56  93
ATOM     93  CB  ARG     6      59.528  39.422  45.672  1.00  0.00     0.034 C 
BRANCH  93  94
ATOM     94  CG  ARG     6      59.275  38.244  44.724  1.00  0.00     0.027 C 
BRANCH  94  95
ATOM     95  CD  ARG     6      58.265  38.621  43.634  1.00  0.00     0.116 C 
BRANCH  95  96
ATOM     96  NE  ARG     6      56.883  38.352  44.079  1.00  0.00    -0.212 N 
ATOM     97  HE  ARG     6      56.628  37.387  44.090  1.00 99.99     0.178 HD
ATOM     98  CZ  ARG     6      55.968  39.257  44.441  1.00  0.00     0.666 C 
ATOM     99  NH2 ARG     6      54.752  38.869  44.802  1.00  0.00    -0.235 N 
ATOM    100  NH1 ARG     6      56.232  40.557  44.429  1.00  0.00    -0.235 N 
ATOM    101 2HH2 ARG     6      54.512  37.901  44.813  1.00 99.99     0.174 HD
ATOM    102 1HH2 ARG     6      54.079  39.553  45.074  1.00 99.99     0.174 HD
ATOM    103 2HH1 ARG     6      57.144  40.856  44.148  1.00 99.99     0.174 HD
ATOM    104 1HH1 ARG     6      55.542  41.221  44.706  1.00 99.99     0.174 HD
ENDBRANCH  95  96
ENDBRANCH  94  95
ENDBRANCH  93  94
ENDBRANCH  56  93
ENDBRANCH  53  56
ENDBRANCH  51  52
BRANCH  51 105
ATOM    105  CB  ILE     5      59.640  37.039  49.976  1.00  0.00     0.029 C 
ATOM    106  CG2 ILE     5      59.937  35.627  49.445  1.00  0.00     0.002 C 
BRANCH 105 107
ATOM    107  CG1 ILE     5      58.854  37.040  51.300  1.00  0.00     0.002 C 
ATOM    108  CD  ILE     5      58.339  35.659  51.728  1.00  0.00     0.000 C 
ENDBRANCH 105 107
ENDBRANCH  51 105
ENDBRANCH  48  51
ENDBRANCH  43  47
ENDBRANCH  41  43
ENDBRANCH  27  39
ENDBRANCH  25  27
ENDBRANCH  22  23
BRANCH  22 109
ATOM    109  CB  ILE     2      55.835  40.859  49.074  1.00  0.00     0.029 C 
ATOM    110  CG2 ILE     2      54.435  40.682  48.455  1.00  0.00     0.002 C 
BRANCH 109 111
ATOM    111  CG1 ILE     2      56.907  40.266  48.138  1.00  0.00     0.002 C 
ATOM    112  CD  ILE     2      56.879  38.735  48.011  1.00  0.00     0.000 C 
ENDBRANCH 109 111
ENDBRANCH  22 109
ENDBRANCH  20  22
ENDBRANCH   5  18
ENDBRANCH   1   5
TORSDOF 37
ENDMDL
MODEL 5
REMARK VINA RESULT:      -4.6      2.782      7.209
REMARK WARNING: 32 MAX_TORS EXCEEDED!!!
REMARK  37 active torsions:
REMARK  status: ('A' for Active; 'I' for Inactive)
REMARK    1  A    between atoms: N_1  and  CA_2 
REMARK    2  A    between atoms: CA_2  and  CB_5 
REMARK    3  A    between atoms: CA_2  and  C_3 
REMARK       I    between atoms: C_3  and  N_20 
REMARK    4  A    between atoms: CB_5  and  CG_6 
REMARK    5  A    between atoms: CG_6  and  CD_7 
REMARK    6  A    between atoms: CD_7  and  NE_8 
REMARK       I    between atoms: NE_8  and  CZ_9 
REMARK       I    between atoms: CZ_9  and  NH1_10 
REMARK       I    between atoms: CZ_9  and  NH2_11 
REMARK    7  A    between atoms: N_20  and  CA_21 
REMARK    8  A    between atoms: CA_21  and  C_22 
REMARK    9  A    between atoms: CA_21  and  CB_24 
REMARK       I    between atoms: C_22  and  N_29 
REMARK   10  A    between atoms: CB_24  and  CG1_25 
REMARK   11  A    between atoms: N_29  and  CA_30 
REMARK   12  A    between atoms: CA_30  and  CB_33 
REMARK   13  A    between atoms: CA_30  and  C_31 
REMARK       I    between atoms: C_31  and  N_45 
REMARK   14  A    between atoms: CB_33  and  CG_34 
REMARK   15  A    between atoms: N_45  and  CA_46 
REMARK   16  A    between atoms: CA_46  and  CB_49 
REMARK   17  A    between atoms: CA_46  and  C_47 
REMARK       I    between atoms: C_47  and  N_53 
REMARK   18  A    between atoms: N_53  and  CA_54 
REMARK   19  A    between atoms: CA_54  and  C_55 
REMARK   20  A    between atoms: CA_54  and  CB_57 
REMARK       I    between atoms: C_55  and  N_62 
REMARK   21  A    between atoms: CB_57  and  CG1_58 
REMARK   22  A    between atoms: N_62  and  CA_63 
REMARK   23  A    between atoms: CA_63  and  C_64 
REMARK   24  A    between atoms: CA_63  and  CB_66 
REMARK       I    between atoms: C_64  and  N_79 
REMARK   25  A    between atoms: CB_66  and  CG_67 
REMARK   26  A    between atoms: CG_67  and  CD_68 
REMARK   27  A    between atoms: CD_68  and  NE_69 
REMARK       I    between atoms: NE_69  and  CZ_70 
REMARK       I    between atoms: CZ_70  and  NH2_72 
REMARK       I    between atoms: CZ_70  and  NH1_71 
REMARK   28  A    between atoms: N_79  and  CA_80 
REMARK   29  A    between atoms: CA_80  and  CB_83 
REMARK   30  A    between atoms: CA_80  and  C_81 
REMARK       I    between atoms: C_81  and  N_95 
REMARK   31  A    between atoms: CB_83  and  CG_84 
REMARK   32  A    between atoms: N_95  and  CA_96 
REMARK   33  A    between atoms: CA_96  and  CB_99 
REMARK   34  A    between atoms: CA_96  and  C_97 
REMARK   35  A    between atoms: CB_99  and  CG_100 
REMARK   36  A    between atoms: CG_100  and  CD_101 
REMARK   37  A    between atoms: CD_101  and  NE_102 
REMARK       I    between atoms: NE_102  and  CZ_103 
REMARK       I    between atoms: CZ_103  and  NH1_104 
ROOT
ATOM      1  N   ARG     1      56.146  43.987  48.521  1.00  0.00    -0.058 N 
ATOM      2  H1  ARG     1      56.215  43.681  47.570  1.00 99.99     0.276 HD
ATOM      3  H2  ARG     1      55.624  44.823  48.535  1.00 99.99     0.276 HD
ATOM      4  H3  ARG     1      57.044  44.235  48.851  1.00 99.99     0.276 HD
ENDROOT
BRANCH   1   5
ATOM      5  CA  ARG     1      55.504  42.896  49.297  1.00  0.00     0.255 C 
BRANCH   5   6
ATOM      6  CB  ARG     1      55.970  41.516  48.786  1.00  0.00     0.042 C 
BRANCH   6   7
ATOM      7  CG  ARG     1      54.900  40.414  48.893  1.00  0.00     0.027 C 
BRANCH   7   8
ATOM      8  CD  ARG     1      53.461  40.948  48.934  1.00  0.00     0.116 C 
BRANCH   8   9
ATOM      9  NE  ARG     1      52.812  40.735  50.244  1.00  0.00    -0.212 N 
ATOM     10  CZ  ARG     1      51.664  40.083  50.466  1.00  0.00     0.666 C 
ATOM     11  NH1 ARG     1      50.959  39.534  49.485  1.00  0.00    -0.235 N 
ATOM     12  NH2 ARG     1      51.196  39.951  51.701  1.00  0.00    -0.235 N 
ATOM     13 2HH1 ARG     1      51.291  39.609  48.547  1.00 99.99     0.174 HD
ATOM     14 1HH1 ARG     1      50.111  39.044  49.682  1.00 99.99     0.174 HD
ATOM     15 1HH2 ARG     1      50.342  39.455  51.854  1.00 99.99     0.174 HD
ATOM     16 2HH2 ARG     1      51.686  40.343  52.477  1.00 99.99     0.174 HD
ATOM     17  HE  ARG     1      53.275  41.152  51.024  1.00 99.99     0.178 HD
ENDBRANCH   8   9
ENDBRANCH   7   8
ENDBRANCH   6   7
ENDBRANCH   5   6
BRANCH   5  18
ATOM     18  C   ARG     1      55.902  43.055  50.781  1.00  0.00     0.259 C 
ATOM     19  O   ARG     1      55.462  43.999  51.435  1.00  0.00    -0.271 OA
ATOM     20  N   ILE     2      56.603  42.063  51.325  1.00  0.00    -0.338 N 
ATOM     21  H   ILE     2      56.890  41.253  50.815  1.00 99.99     0.164 HD
BRANCH  20  22
ATOM     22  CA  ILE     2      57.089  42.098  52.723  1.00  0.00     0.159 C 
BRANCH  22  23
ATOM     23  C   ILE     2      58.581  42.488  52.687  1.00  0.00     0.251 C 
ATOM     24  O   ILE     2      59.008  43.385  53.413  1.00  0.00    -0.271 OA
ATOM     25  N   TRP     3      59.349  41.749  51.893  1.00  0.00    -0.337 N 
ATOM     26  H   TRP     3      59.007  40.931  51.432  1.00 99.99     0.164 HD
BRANCH  25  27
ATOM     27  CA  TRP     3      60.771  42.040  51.631  1.00  0.00     0.164 C 
BRANCH  27  28
ATOM     28  CB  TRP     3      61.574  40.737  51.566  1.00  0.00     0.059 C 
BRANCH  28  29
ATOM     29  CG  TRP     3      60.891  39.509  52.182  1.00  0.00    -0.016 A 
ATOM     30  CD2 TRP     3      60.150  38.602  51.445  1.00  0.00    -0.001 A 
ATOM     31  CE3 TRP     3      59.714  38.609  50.129  1.00  0.00     0.014 A 
ATOM     32  CE2 TRP     3      59.919  37.508  52.263  1.00  0.00     0.042 A 
ATOM     33  CZ3 TRP     3      59.051  37.504  49.616  1.00  0.00     0.001 A 
ATOM     34  CH2 TRP     3      58.806  36.405  50.434  1.00  0.00     0.002 A 
ATOM     35  CZ2 TRP     3      59.231  36.409  51.758  1.00  0.00     0.030 A 
ATOM     36  NE1 TRP     3      60.504  37.761  53.432  1.00  0.00    -0.365 N 
ATOM     37  CD1 TRP     3      61.076  38.965  53.386  1.00  0.00     0.097 A 
ATOM     38  HE1 TRP     3      60.565  37.124  54.201  1.00 99.99     0.165 HD
ENDBRANCH  28  29
ENDBRANCH  27  28
BRANCH  27  39
ATOM     39  C   TRP     3      60.917  42.807  50.312  1.00  0.00     0.251 C 
ATOM     40  O   TRP     3      60.059  42.732  49.433  1.00  0.00    -0.271 OA
ATOM     41  N   VAL     4      61.914  43.683  50.289  1.00  0.00    -0.338 N 
ATOM     42  H   VAL     4      62.549  43.785  51.054  1.00 99.99     0.164 HD
BRANCH  41  43
ATOM     43  CA  VAL     4      62.200  44.546  49.124  1.00  0.00     0.159 C 
BRANCH  43  44
ATOM     44  CB  VAL     4      62.794  45.898  49.577  1.00  0.00     0.029 C 
ATOM     45  CG1 VAL     4      61.875  47.075  49.225  1.00  0.00     0.002 C 
ATOM     46  CG2 VAL     4      63.067  45.926  51.086  1.00  0.00     0.002 C 
ENDBRANCH  43  44
BRANCH  43  47
ATOM     47  C   VAL     4      63.151  43.791  48.180  1.00  0.00     0.251 C 
ATOM     48  N   ILE     5      62.579  42.841  47.441  1.00  0.00    -0.338 N 
ATOM     49  H   ILE     5      61.625  42.581  47.592  1.00 99.99     0.164 HD
ATOM     50  O   VAL     4      64.331  44.121  48.091  1.00  0.00    -0.271 OA
BRANCH  48  51
ATOM     51  CA  ILE     5      63.287  41.977  46.462  1.00  0.00     0.159 C 
BRANCH  51  52
ATOM     52  C   ILE     5      63.255  42.411  44.977  1.00  0.00     0.251 C 
ATOM     53  N   ARG     6      62.259  41.929  44.238  1.00  0.00    -0.338 N 
ATOM     54  H   ARG     6      61.550  41.357  44.643  1.00 99.99     0.164 HD
ATOM     55  O   ILE     5      64.137  43.136  44.521  1.00  0.00    -0.271 OA
BRANCH  53  56
ATOM     56  CA  ARG     6      61.947  42.360  42.863  1.00  0.00     0.159 C 
BRANCH  56  57
ATOM     57  C   ARG     6      60.419  42.509  42.815  1.00  0.00     0.251 C 
ATOM     58  N   TRP     7      59.816  41.476  42.242  1.00  0.00    -0.337 N 
ATOM     59  H   TRP     7      60.331  40.694  41.901  1.00 99.99     0.164 HD
ATOM     60  O   ARG     6      59.877  43.602  42.989  1.00  0.00    -0.271 OA
BRANCH  58  61
ATOM     61  CA  TRP     7      58.367  41.411  41.985  1.00  0.00     0.164 C 
BRANCH  61  62
ATOM     62  CB  TRP     7      58.097  41.681  40.500  1.00  0.00     0.059 C 
BRANCH  62  63
ATOM     63  CG  TRP     7      59.271  41.230  39.624  1.00  0.00    -0.016 A 
ATOM     64  CD2 TRP     7      60.086  42.045  38.854  1.00  0.00    -0.001 A 
ATOM     65  CE2 TRP     7      60.977  41.208  38.200  1.00  0.00     0.042 A 
ATOM     66  CE3 TRP     7      60.124  43.417  38.649  1.00  0.00     0.014 A 
ATOM     67  NE1 TRP     7      60.693  39.961  38.572  1.00  0.00    -0.365 N 
ATOM     68  CZ2 TRP     7      61.917  41.750  37.330  1.00  0.00     0.030 A 
ATOM     69  HE1 TRP     7      61.157  39.136  38.247  1.00 99.99     0.165 HD
ATOM     70  CD1 TRP     7      59.669  39.977  39.426  1.00  0.00     0.097 A 
ATOM     71  CH2 TRP     7      61.958  43.124  37.118  1.00  0.00     0.002 A 
ATOM     72  CZ3 TRP     7      61.058  43.957  37.774  1.00  0.00     0.001 A 
ENDBRANCH  62  63
ENDBRANCH  61  62
BRANCH  61  73
ATOM     73  C   TRP     7      57.715  40.095  42.435  1.00  0.00     0.251 C 
ATOM     74  O   TRP     7      57.296  39.265  41.630  1.00  0.00    -0.271 OA
ATOM     75  N   ARG     8      57.890  39.851  43.728  1.00  0.00    -0.336 N 
ATOM     76  H   ARG     8      58.412  40.486  44.295  1.00 99.99     0.164 HD
BRANCH  75  77
ATOM     77  CA  ARG     8      57.300  38.715  44.471  1.00  0.00     0.168 C 
BRANCH  77  78
ATOM     78  CB  ARG     8      58.073  38.462  45.769  1.00  0.00     0.035 C 
BRANCH  78  79
ATOM     79  CG  ARG     8      59.287  39.358  46.011  1.00  0.00     0.027 C 
BRANCH  79  80
ATOM     80  CD  ARG     8      58.894  40.368  47.085  1.00  0.00     0.116 C 
BRANCH  80  81
ATOM     81  NE  ARG     8      59.430  41.702  46.773  1.00  0.00    -0.212 N 
ATOM     82  HE  ARG     8      60.375  41.857  47.056  1.00 99.99     0.178 HD
ATOM     83  CZ  ARG     8      58.768  42.671  46.135  1.00  0.00     0.666 C 
ATOM     84  NH1 ARG     8      57.536  42.488  45.675  1.00  0.00    -0.235 N 
ATOM     85  NH2 ARG     8      59.311  43.871  45.994  1.00  0.00    -0.235 N 
ATOM     86 2HH1 ARG     8      57.104  41.598  45.805  1.00 99.99     0.174 HD
ATOM     87 1HH1 ARG     8      57.053  43.223  45.204  1.00 99.99     0.174 HD
ATOM     88 2HH2 ARG     8      60.217  44.062  46.366  1.00 99.99     0.174 HD
ATOM     89 1HH2 ARG     8      58.800  44.586  45.522  1.00 99.99     0.174 HD
ENDBRANCH  80  81
ENDBRANCH  79  80
ENDBRANCH  78  79
ENDBRANCH  77  78
BRANCH  77  90
ATOM     90  C   ARG     8      55.876  39.117  44.887  1.00  0.00     0.206 C 
ATOM     91  O   ARG     8      54.940  38.322  44.655  1.00 99.99    -0.646 OA
ATOM     92  OXT ARG     8      55.767  40.289  45.320  1.00 99.99    -0.646 OA
ENDBRANCH  77  90
ENDBRANCH  75  77
ENDBRANCH  61  73
ENDBRANCH  58  61
ENDBRANCH  56  57
BRANCH  56  93
ATOM     93  CB  ARG     6      62.383  41.307  41.839  1.00  0.00     0.034 C 
BRANCH  93  94
ATOM     94  CG  ARG     6      62.976  40.034  42.451  1.00  0.00     0.027 C 
BRANCH  94  95
ATOM     95  CD  ARG     6      64.384  39.764  41.908  1.00  0.00     0.116 C 
BRANCH  95  96
ATOM     96  NE  ARG     6      65.415  40.272  42.836  1.00  0.00    -0.212 N 
ATOM     97  HE  ARG     6      65.648  39.651  43.582  1.00 99.99     0.178 HD
ATOM     98  CZ  ARG     6      66.030  41.457  42.778  1.00  0.00     0.666 C 
ATOM     99  NH2 ARG     6      66.927  41.789  43.697  1.00  0.00    -0.235 N 
ATOM    100  NH1 ARG     6      65.754  42.340  41.827  1.00  0.00    -0.235 N 
ATOM    101 2HH2 ARG     6      67.154  41.156  44.434  1.00 99.99     0.174 HD
ATOM    102 1HH2 ARG     6      67.384  42.674  43.641  1.00 99.99     0.174 HD
ATOM    103 2HH1 ARG     6      65.071  42.100  41.137  1.00 99.99     0.174 HD
ATOM    104 1HH1 ARG     6      66.224  43.218  41.793  1.00 99.99     0.174 HD
ENDBRANCH  95  96
ENDBRANCH  94  95
ENDBRANCH  93  94
ENDBRANCH  56  93
ENDBRANCH  53  56
ENDBRANCH  51  52
BRANCH  51 105
ATOM    105  CB  ILE     5      62.840  40.508  46.602  1.00  0.00     0.029 C 
ATOM    106  CG2 ILE     5      63.938  39.581  46.056  1.00  0.00     0.002 C 
BRANCH 105 107
ATOM    107  CG1 ILE     5      62.415  40.168  48.043  1.00  0.00     0.002 C 
ATOM    108  CD  ILE     5      63.357  39.194  48.763  1.00  0.00     0.000 C 
ENDBRANCH 105 107
ENDBRANCH  51 105
ENDBRANCH  48  51
ENDBRANCH  43  47
ENDBRANCH  41  43
ENDBRANCH  27  39
ENDBRANCH  25  27
ENDBRANCH  22  23
BRANCH  22 109
ATOM    109  CB  ILE     2      56.851  40.726  53.400  1.00  0.00     0.029 C 
ATOM    110  CG2 ILE     2      56.808  39.584  52.367  1.00  0.00     0.002 C 
BRANCH 109 111
ATOM    111  CG1 ILE     2      57.932  40.442  54.461  1.00  0.00     0.002 C 
ATOM    112  CD  ILE     2      57.716  39.158  55.276  1.00  0.00     0.000 C 
ENDBRANCH 109 111
ENDBRANCH  22 109
ENDBRANCH  20  22
ENDBRANCH   5  18
ENDBRANCH   1   5
TORSDOF 37
ENDMDL
MODEL 6
REMARK VINA RESULT:      -4.5      3.206      8.922
REMARK WARNING: 32 MAX_TORS EXCEEDED!!!
REMARK  37 active torsions:
REMARK  status: ('A' for Active; 'I' for Inactive)
REMARK    1  A    between atoms: N_1  and  CA_2 
REMARK    2  A    between atoms: CA_2  and  CB_5 
REMARK    3  A    between atoms: CA_2  and  C_3 
REMARK       I    between atoms: C_3  and  N_20 
REMARK    4  A    between atoms: CB_5  and  CG_6 
REMARK    5  A    between atoms: CG_6  and  CD_7 
REMARK    6  A    between atoms: CD_7  and  NE_8 
REMARK       I    between atoms: NE_8  and  CZ_9 
REMARK       I    between atoms: CZ_9  and  NH1_10 
REMARK       I    between atoms: CZ_9  and  NH2_11 
REMARK    7  A    between atoms: N_20  and  CA_21 
REMARK    8  A    between atoms: CA_21  and  C_22 
REMARK    9  A    between atoms: CA_21  and  CB_24 
REMARK       I    between atoms: C_22  and  N_29 
REMARK   10  A    between atoms: CB_24  and  CG1_25 
REMARK   11  A    between atoms: N_29  and  CA_30 
REMARK   12  A    between atoms: CA_30  and  CB_33 
REMARK   13  A    between atoms: CA_30  and  C_31 
REMARK       I    between atoms: C_31  and  N_45 
REMARK   14  A    between atoms: CB_33  and  CG_34 
REMARK   15  A    between atoms: N_45  and  CA_46 
REMARK   16  A    between atoms: CA_46  and  CB_49 
REMARK   17  A    between atoms: CA_46  and  C_47 
REMARK       I    between atoms: C_47  and  N_53 
REMARK   18  A    between atoms: N_53  and  CA_54 
REMARK   19  A    between atoms: CA_54  and  C_55 
REMARK   20  A    between atoms: CA_54  and  CB_57 
REMARK       I    between atoms: C_55  and  N_62 
REMARK   21  A    between atoms: CB_57  and  CG1_58 
REMARK   22  A    between atoms: N_62  and  CA_63 
REMARK   23  A    between atoms: CA_63  and  C_64 
REMARK   24  A    between atoms: CA_63  and  CB_66 
REMARK       I    between atoms: C_64  and  N_79 
REMARK   25  A    between atoms: CB_66  and  CG_67 
REMARK   26  A    between atoms: CG_67  and  CD_68 
REMARK   27  A    between atoms: CD_68  and  NE_69 
REMARK       I    between atoms: NE_69  and  CZ_70 
REMARK       I    between atoms: CZ_70  and  NH2_72 
REMARK       I    between atoms: CZ_70  and  NH1_71 
REMARK   28  A    between atoms: N_79  and  CA_80 
REMARK   29  A    between atoms: CA_80  and  CB_83 
REMARK   30  A    between atoms: CA_80  and  C_81 
REMARK       I    between atoms: C_81  and  N_95 
REMARK   31  A    between atoms: CB_83  and  CG_84 
REMARK   32  A    between atoms: N_95  and  CA_96 
REMARK   33  A    between atoms: CA_96  and  CB_99 
REMARK   34  A    between atoms: CA_96  and  C_97 
REMARK   35  A    between atoms: CB_99  and  CG_100 
REMARK   36  A    between atoms: CG_100  and  CD_101 
REMARK   37  A    between atoms: CD_101  and  NE_102 
REMARK       I    between atoms: NE_102  and  CZ_103 
REMARK       I    between atoms: CZ_103  and  NH1_104 
ROOT
ATOM      1  N   ARG     1      70.718  38.220  54.435  1.00  0.00    -0.058 N 
ATOM      2  H1  ARG     1      70.535  37.616  55.213  1.00 99.99     0.276 HD
ATOM      3  H2  ARG     1      70.913  37.655  53.651  1.00 99.99     0.276 HD
ATOM      4  H3  ARG     1      71.549  38.727  54.603  1.00 99.99     0.276 HD
ENDROOT
BRANCH   1   5
ATOM      5  CA  ARG     1      69.522  39.077  54.242  1.00  0.00     0.255 C 
BRANCH   5   6
ATOM      6  CB  ARG     1      69.801  40.518  54.717  1.00  0.00     0.042 C 
BRANCH   6   7
ATOM      7  CG  ARG     1      68.633  41.163  55.485  1.00  0.00     0.027 C 
BRANCH   7   8
ATOM      8  CD  ARG     1      67.417  40.240  55.655  1.00  0.00     0.116 C 
BRANCH   8   9
ATOM      9  NE  ARG     1      66.307  40.590  54.744  1.00  0.00    -0.212 N 
ATOM     10  CZ  ARG     1      65.002  40.588  55.045  1.00  0.00     0.666 C 
ATOM     11  NH1 ARG     1      64.552  40.257  56.248  1.00  0.00    -0.235 N 
ATOM     12  NH2 ARG     1      64.104  40.938  54.132  1.00  0.00    -0.235 N 
ATOM     13 2HH1 ARG     1      65.205  39.997  56.957  1.00 99.99     0.174 HD
ATOM     14 1HH1 ARG     1      63.573  40.274  56.446  1.00 99.99     0.174 HD
ATOM     15 1HH2 ARG     1      63.134  40.941  54.372  1.00 99.99     0.174 HD
ATOM     16 2HH2 ARG     1      64.386  41.198  53.211  1.00 99.99     0.174 HD
ATOM     17  HE  ARG     1      66.575  40.818  53.811  1.00 99.99     0.178 HD
ENDBRANCH   8   9
ENDBRANCH   7   8
ENDBRANCH   6   7
ENDBRANCH   5   6
BRANCH   5  18
ATOM     18  C   ARG     1      69.170  39.091  52.738  1.00  0.00     0.259 C 
ATOM     19  O   ARG     1      70.028  39.400  51.912  1.00  0.00    -0.271 OA
ATOM     20  N   ILE     2      67.972  38.621  52.395  1.00  0.00    -0.338 N 
ATOM     21  H   ILE     2      67.305  38.289  53.061  1.00 99.99     0.164 HD
BRANCH  20  22
ATOM     22  CA  ILE     2      67.485  38.613  50.998  1.00  0.00     0.159 C 
BRANCH  22  23
ATOM     23  C   ILE     2      66.101  39.293  50.984  1.00  0.00     0.251 C 
ATOM     24  O   ILE     2      65.437  39.376  52.017  1.00  0.00    -0.271 OA
ATOM     25  N   TRP     3      65.736  39.829  49.824  1.00  0.00    -0.337 N 
ATOM     26  H   TRP     3      66.356  39.882  49.044  1.00 99.99     0.164 HD
BRANCH  25  27
ATOM     27  CA  TRP     3      64.404  40.415  49.578  1.00  0.00     0.164 C 
BRANCH  27  28
ATOM     28  CB  TRP     3      64.449  41.335  48.355  1.00  0.00     0.059 C 
BRANCH  28  29
ATOM     29  CG  TRP     3      65.128  42.693  48.575  1.00  0.00    -0.016 A 
ATOM     30  CD2 TRP     3      64.436  43.844  48.911  1.00  0.00    -0.001 A 
ATOM     31  CE3 TRP     3      63.080  44.126  48.980  1.00  0.00     0.014 A 
ATOM     32  CE2 TRP     3      65.377  44.789  49.285  1.00  0.00     0.042 A 
ATOM     33  CZ3 TRP     3      62.656  45.362  49.443  1.00  0.00     0.001 A 
ATOM     34  CH2 TRP     3      63.595  46.322  49.811  1.00  0.00     0.002 A 
ATOM     35  CZ2 TRP     3      64.954  46.039  49.724  1.00  0.00     0.030 A 
ATOM     36  NE1 TRP     3      66.574  44.215  49.177  1.00  0.00    -0.365 N 
ATOM     37  CD1 TRP     3      66.424  42.964  48.740  1.00  0.00     0.097 A 
ATOM     38  HE1 TRP     3      67.444  44.631  49.443  1.00 99.99     0.165 HD
ENDBRANCH  28  29
ENDBRANCH  27  28
BRANCH  27  39
ATOM     39  C   TRP     3      63.374  39.302  49.355  1.00  0.00     0.251 C 
ATOM     40  O   TRP     3      63.370  38.634  48.320  1.00  0.00    -0.271 OA
ATOM     41  N   VAL     4      62.643  39.002  50.422  1.00  0.00    -0.338 N 
ATOM     42  H   VAL     4      62.726  39.506  51.280  1.00 99.99     0.164 HD
BRANCH  41  43
ATOM     43  CA  VAL     4      61.620  37.936  50.422  1.00  0.00     0.159 C 
BRANCH  43  44
ATOM     44  CB  VAL     4      62.118  36.700  51.203  1.00  0.00     0.029 C 
ATOM     45  CG1 VAL     4      62.887  35.723  50.301  1.00  0.00     0.002 C 
ATOM     46  CG2 VAL     4      63.020  37.091  52.379  1.00  0.00     0.002 C 
ENDBRANCH  43  44
BRANCH  43  47
ATOM     47  C   VAL     4      60.323  38.506  51.021  1.00  0.00     0.251 C 
ATOM     48  N   ILE     5      60.091  39.789  50.750  1.00  0.00    -0.338 N 
ATOM     49  H   ILE     5      60.781  40.347  50.289  1.00 99.99     0.164 HD
ATOM     50  O   VAL     4      59.548  37.776  51.635  1.00  0.00    -0.271 OA
BRANCH  48  51
ATOM     51  CA  ILE     5      58.911  40.561  51.217  1.00  0.00     0.159 C 
BRANCH  51  52
ATOM     52  C   ILE     5      57.672  40.597  50.290  1.00  0.00     0.251 C 
ATOM     53  N   ARG     6      57.070  41.775  50.149  1.00  0.00    -0.338 N 
ATOM     54  H   ARG     6      57.434  42.594  50.585  1.00 99.99     0.164 HD
ATOM     55  O   ILE     5      57.266  39.568  49.754  1.00  0.00    -0.271 OA
BRANCH  53  56
ATOM     56  CA  ARG     6      55.995  42.058  49.180  1.00  0.00     0.159 C 
BRANCH  56  57
ATOM     57  C   ARG     6      56.546  43.163  48.266  1.00  0.00     0.251 C 
ATOM     58  N   TRP     7      57.714  42.849  47.720  1.00  0.00    -0.337 N 
ATOM     59  H   TRP     7      58.154  41.973  47.896  1.00 99.99     0.164 HD
ATOM     60  O   ARG     6      56.106  44.313  48.315  1.00  0.00    -0.271 OA
BRANCH  58  61
ATOM     61  CA  TRP     7      58.501  43.770  46.882  1.00  0.00     0.164 C 
BRANCH  61  62
ATOM     62  CB  TRP     7      59.965  43.756  47.339  1.00  0.00     0.059 C 
BRANCH  62  63
ATOM     63  CG  TRP     7      60.649  42.429  46.996  1.00  0.00    -0.016 A 
ATOM     64  CD2 TRP     7      61.573  42.213  45.986  1.00  0.00    -0.001 A 
ATOM     65  CE2 TRP     7      61.884  40.863  46.016  1.00  0.00     0.042 A 
ATOM     66  CE3 TRP     7      62.153  43.052  45.044  1.00  0.00     0.014 A 
ATOM     67  NE1 TRP     7      61.171  40.315  46.999  1.00  0.00    -0.365 N 
ATOM     68  CZ2 TRP     7      62.784  40.344  45.092  1.00  0.00     0.030 A 
ATOM     69  HE1 TRP     7      61.171  39.346  47.248  1.00 99.99     0.165 HD
ATOM     70  CD1 TRP     7      60.431  41.257  47.587  1.00  0.00     0.097 A 
ATOM     71  CH2 TRP     7      63.365  41.179  44.142  1.00  0.00     0.002 A 
ATOM     72  CZ3 TRP     7      63.045  42.532  44.116  1.00  0.00     0.001 A 
ENDBRANCH  62  63
ENDBRANCH  61  62
BRANCH  61  73
ATOM     73  C   TRP     7      58.390  43.486  45.376  1.00  0.00     0.251 C 
ATOM     74  O   TRP     7      58.702  44.322  44.530  1.00  0.00    -0.271 OA
ATOM     75  N   ARG     8      58.182  42.203  45.108  1.00  0.00    -0.336 N 
ATOM     76  H   ARG     8      58.127  41.537  45.850  1.00 99.99     0.164 HD
BRANCH  75  77
ATOM     77  CA  ARG     8      57.939  41.640  43.762  1.00  0.00     0.168 C 
BRANCH  77  78
ATOM     78  CB  ARG     8      59.259  41.218  43.109  1.00  0.00     0.035 C 
BRANCH  78  79
ATOM     79  CG  ARG     8      59.774  42.128  41.994  1.00  0.00     0.027 C 
BRANCH  79  80
ATOM     80  CD  ARG     8      59.066  41.709  40.708  1.00  0.00     0.116 C 
BRANCH  80  81
ATOM     81  NE  ARG     8      59.110  40.249  40.536  1.00  0.00    -0.212 N 
ATOM     82  HE  ARG     8      60.017  39.839  40.614  1.00 99.99     0.178 HD
ATOM     83  CZ  ARG     8      58.052  39.465  40.318  1.00  0.00     0.666 C 
ATOM     84  NH1 ARG     8      56.818  39.953  40.279  1.00  0.00    -0.235 N 
ATOM     85  NH2 ARG     8      58.215  38.173  40.077  1.00  0.00    -0.235 N 
ATOM     86 2HH1 ARG     8      56.685  40.932  40.425  1.00 99.99     0.174 HD
ATOM     87 1HH1 ARG     8      56.037  39.355  40.111  1.00 99.99     0.174 HD
ATOM     88 2HH2 ARG     8      59.130  37.775  40.053  1.00 99.99     0.174 HD
ATOM     89 1HH2 ARG     8      57.415  37.602  39.908  1.00 99.99     0.174 HD
ENDBRANCH  80  81
ENDBRANCH  79  80
ENDBRANCH  78  79
ENDBRANCH  77  78
BRANCH  77  90
ATOM     90  C   ARG     8      57.113  40.355  43.936  1.00  0.00     0.206 C 
ATOM     91  O   ARG     8      57.253  39.439  43.097  1.00 99.99    -0.646 OA
ATOM     92  OXT ARG     8      56.264  40.397  44.857  1.00 99.99    -0.646 OA
ENDBRANCH  77  90
ENDBRANCH  75  77
ENDBRANCH  61  73
ENDBRANCH  58  61
ENDBRANCH  56  57
BRANCH  56  93
ATOM     93  CB  ARG     6      54.733  42.570  49.883  1.00  0.00     0.034 C 
BRANCH  93  94
ATOM     94  CG  ARG     6      53.494  41.691  49.680  1.00  0.00     0.027 C 
BRANCH  94  95
ATOM     95  CD  ARG     6      53.885  40.222  49.483  1.00  0.00     0.116 C 
BRANCH  95  96
ATOM     96  NE  ARG     6      53.572  39.771  48.112  1.00  0.00    -0.212 N 
ATOM     97  HE  ARG     6      52.651  39.992  47.800  1.00 99.99     0.178 HD
ATOM     98  CZ  ARG     6      54.381  39.100  47.286  1.00  0.00     0.666 C 
ATOM     99  NH2 ARG     6      53.957  38.741  46.082  1.00  0.00    -0.235 N 
ATOM    100  NH1 ARG     6      55.611  38.755  47.644  1.00  0.00    -0.235 N 
ATOM    101 2HH2 ARG     6      53.034  38.973  45.781  1.00 99.99     0.174 HD
ATOM    102 1HH2 ARG     6      54.570  38.245  45.472  1.00 99.99     0.174 HD
ATOM    103 2HH1 ARG     6      55.934  39.014  48.554  1.00 99.99     0.174 HD
ATOM    104 1HH1 ARG     6      56.205  38.259  47.016  1.00 99.99     0.174 HD
ENDBRANCH  95  96
ENDBRANCH  94  95
ENDBRANCH  93  94
ENDBRANCH  56  93
ENDBRANCH  53  56
ENDBRANCH  51  52
BRANCH  51 105
ATOM    105  CB  ILE     5      59.318  41.991  51.625  1.00  0.00     0.029 C 
ATOM    106  CG2 ILE     5      59.232  42.135  53.154  1.00  0.00     0.002 C 
BRANCH 105 107
ATOM    107  CG1 ILE     5      60.690  42.389  51.051  1.00  0.00     0.002 C 
ATOM    108  CD  ILE     5      61.734  42.758  52.113  1.00  0.00     0.000 C 
ENDBRANCH 105 107
ENDBRANCH  51 105
ENDBRANCH  48  51
ENDBRANCH  43  47
ENDBRANCH  41  43
ENDBRANCH  27  39
ENDBRANCH  25  27
ENDBRANCH  22  23
BRANCH  22 109
ATOM    109  CB  ILE     2      67.439  37.160  50.463  1.00  0.00     0.029 C 
ATOM    110  CG2 ILE     2      68.571  36.892  49.454  1.00  0.00     0.002 C 
BRANCH 109 111
ATOM    111  CG1 ILE     2      67.509  36.146  51.621  1.00  0.00     0.002 C 
ATOM    112  CD  ILE     2      66.270  35.252  51.774  1.00  0.00     0.000 C 
ENDBRANCH 109 111
ENDBRANCH  22 109
ENDBRANCH  20  22
ENDBRANCH   5  18
ENDBRANCH   1   5
TORSDOF 37
ENDMDL
MODEL 7
REMARK VINA RESULT:      -4.4      2.449      6.381
REMARK WARNING: 32 MAX_TORS EXCEEDED!!!
REMARK  37 active torsions:
REMARK  status: ('A' for Active; 'I' for Inactive)
REMARK    1  A    between atoms: N_1  and  CA_2 
REMARK    2  A    between atoms: CA_2  and  CB_5 
REMARK    3  A    between atoms: CA_2  and  C_3 
REMARK       I    between atoms: C_3  and  N_20 
REMARK    4  A    between atoms: CB_5  and  CG_6 
REMARK    5  A    between atoms: CG_6  and  CD_7 
REMARK    6  A    between atoms: CD_7  and  NE_8 
REMARK       I    between atoms: NE_8  and  CZ_9 
REMARK       I    between atoms: CZ_9  and  NH1_10 
REMARK       I    between atoms: CZ_9  and  NH2_11 
REMARK    7  A    between atoms: N_20  and  CA_21 
REMARK    8  A    between atoms: CA_21  and  C_22 
REMARK    9  A    between atoms: CA_21  and  CB_24 
REMARK       I    between atoms: C_22  and  N_29 
REMARK   10  A    between atoms: CB_24  and  CG1_25 
REMARK   11  A    between atoms: N_29  and  CA_30 
REMARK   12  A    between atoms: CA_30  and  CB_33 
REMARK   13  A    between atoms: CA_30  and  C_31 
REMARK       I    between atoms: C_31  and  N_45 
REMARK   14  A    between atoms: CB_33  and  CG_34 
REMARK   15  A    between atoms: N_45  and  CA_46 
REMARK   16  A    between atoms: CA_46  and  CB_49 
REMARK   17  A    between atoms: CA_46  and  C_47 
REMARK       I    between atoms: C_47  and  N_53 
REMARK   18  A    between atoms: N_53  and  CA_54 
REMARK   19  A    between atoms: CA_54  and  C_55 
REMARK   20  A    between atoms: CA_54  and  CB_57 
REMARK       I    between atoms: C_55  and  N_62 
REMARK   21  A    between atoms: CB_57  and  CG1_58 
REMARK   22  A    between atoms: N_62  and  CA_63 
REMARK   23  A    between atoms: CA_63  and  C_64 
REMARK   24  A    between atoms: CA_63  and  CB_66 
REMARK       I    between atoms: C_64  and  N_79 
REMARK   25  A    between atoms: CB_66  and  CG_67 
REMARK   26  A    between atoms: CG_67  and  CD_68 
REMARK   27  A    between atoms: CD_68  and  NE_69 
REMARK       I    between atoms: NE_69  and  CZ_70 
REMARK       I    between atoms: CZ_70  and  NH2_72 
REMARK       I    between atoms: CZ_70  and  NH1_71 
REMARK   28  A    between atoms: N_79  and  CA_80 
REMARK   29  A    between atoms: CA_80  and  CB_83 
REMARK   30  A    between atoms: CA_80  and  C_81 
REMARK       I    between atoms: C_81  and  N_95 
REMARK   31  A    between atoms: CB_83  and  CG_84 
REMARK   32  A    between atoms: N_95  and  CA_96 
REMARK   33  A    between atoms: CA_96  and  CB_99 
REMARK   34  A    between atoms: CA_96  and  C_97 
REMARK   35  A    between atoms: CB_99  and  CG_100 
REMARK   36  A    between atoms: CG_100  and  CD_101 
REMARK   37  A    between atoms: CD_101  and  NE_102 
REMARK       I    between atoms: NE_102  and  CZ_103 
REMARK       I    between atoms: CZ_103  and  NH1_104 
ROOT
ATOM      1  N   ARG     1      59.222  43.989  48.010  1.00  0.00    -0.058 N 
ATOM      2  H1  ARG     1      60.011  43.483  47.657  1.00 99.99     0.276 HD
ATOM      3  H2  ARG     1      59.444  44.949  47.997  1.00 99.99     0.276 HD
ATOM      4  H3  ARG     1      59.091  43.765  48.965  1.00 99.99     0.276 HD
ENDROOT
BRANCH   1   5
ATOM      5  CA  ARG     1      58.057  43.657  47.153  1.00  0.00     0.255 C 
BRANCH   5   6
ATOM      6  CB  ARG     1      58.201  42.239  46.561  1.00  0.00     0.042 C 
BRANCH   6   7
ATOM      7  CG  ARG     1      57.295  41.971  45.346  1.00  0.00     0.027 C 
BRANCH   7   8
ATOM      8  CD  ARG     1      58.055  41.489  44.101  1.00  0.00     0.116 C 
BRANCH   8   9
ATOM      9  NE  ARG     1      59.271  42.285  43.833  1.00  0.00    -0.212 N 
ATOM     10  CZ  ARG     1      59.582  42.898  42.683  1.00  0.00     0.666 C 
ATOM     11  NH1 ARG     1      58.792  42.851  41.618  1.00  0.00    -0.235 N 
ATOM     12  NH2 ARG     1      60.706  43.596  42.579  1.00  0.00    -0.235 N 
ATOM     13 2HH1 ARG     1      57.936  42.340  41.670  1.00 99.99     0.174 HD
ATOM     14 1HH1 ARG     1      59.045  43.326  40.777  1.00 99.99     0.174 HD
ATOM     15 1HH2 ARG     1      60.922  44.055  41.719  1.00 99.99     0.174 HD
ATOM     16 2HH2 ARG     1      61.336  43.666  43.349  1.00 99.99     0.174 HD
ATOM     17  HE  ARG     1      59.925  42.333  44.584  1.00 99.99     0.178 HD
ENDBRANCH   8   9
ENDBRANCH   7   8
ENDBRANCH   6   7
ENDBRANCH   5   6
BRANCH   5  18
ATOM     18  C   ARG     1      56.780  43.724  48.019  1.00  0.00     0.259 C 
ATOM     19  O   ARG     1      56.069  44.728  47.985  1.00  0.00    -0.271 OA
ATOM     20  N   ILE     2      56.432  42.613  48.665  1.00  0.00    -0.338 N 
ATOM     21  H   ILE     2      56.965  41.769  48.625  1.00 99.99     0.164 HD
BRANCH  20  22
ATOM     22  CA  ILE     2      55.258  42.544  49.564  1.00  0.00     0.159 C 
BRANCH  22  23
ATOM     23  C   ILE     2      55.751  42.833  50.996  1.00  0.00     0.251 C 
ATOM     24  O   ILE     2      55.633  43.958  51.480  1.00  0.00    -0.271 OA
ATOM     25  N   TRP     3      56.224  41.786  51.663  1.00  0.00    -0.337 N 
ATOM     26  H   TRP     3      56.167  40.855  51.304  1.00 99.99     0.164 HD
BRANCH  25  27
ATOM     27  CA  TRP     3      56.851  41.880  52.995  1.00  0.00     0.164 C 
BRANCH  27  28
ATOM     28  CB  TRP     3      56.957  40.491  53.630  1.00  0.00     0.059 C 
BRANCH  28  29
ATOM     29  CG  TRP     3      56.494  39.325  52.748  1.00  0.00    -0.016 A 
ATOM     30  CD2 TRP     3      55.163  38.984  52.576  1.00  0.00    -0.001 A 
ATOM     31  CE3 TRP     3      54.004  39.425  53.194  1.00  0.00     0.014 A 
ATOM     32  CE2 TRP     3      55.108  38.079  51.529  1.00  0.00     0.042 A 
ATOM     33  CZ3 TRP     3      52.771  38.969  52.752  1.00  0.00     0.001 A 
ATOM     34  CH2 TRP     3      52.707  38.051  51.708  1.00  0.00     0.002 A 
ATOM     35  CZ2 TRP     3      53.874  37.600  51.102  1.00  0.00     0.030 A 
ATOM     36  NE1 TRP     3      56.356  37.898  51.100  1.00  0.00    -0.365 N 
ATOM     37  CD1 TRP     3      57.186  38.636  51.840  1.00  0.00     0.097 A 
ATOM     38  HE1 TRP     3      56.625  37.349  50.308  1.00 99.99     0.165 HD
ENDBRANCH  28  29
ENDBRANCH  27  28
BRANCH  27  39
ATOM     39  C   TRP     3      58.245  42.507  52.876  1.00  0.00     0.251 C 
ATOM     40  O   TRP     3      58.497  43.601  53.381  1.00  0.00    -0.271 OA
ATOM     41  N   VAL     4      59.173  41.701  52.375  1.00  0.00    -0.338 N 
ATOM     42  H   VAL     4      58.957  40.781  52.049  1.00 99.99     0.164 HD
BRANCH  41  43
ATOM     43  CA  VAL     4      60.585  42.103  52.211  1.00  0.00     0.159 C 
BRANCH  43  44
ATOM     44  CB  VAL     4      61.528  41.067  52.861  1.00  0.00     0.029 C 
ATOM     45  CG1 VAL     4      62.573  41.732  53.767  1.00  0.00     0.002 C 
ATOM     46  CG2 VAL     4      60.756  40.029  53.685  1.00  0.00     0.002 C 
ENDBRANCH  43  44
BRANCH  43  47
ATOM     47  C   VAL     4      60.872  42.275  50.710  1.00  0.00     0.251 C 
ATOM     48  N   ILE     5      61.855  43.125  50.415  1.00  0.00    -0.338 N 
ATOM     49  H   ILE     5      62.279  43.683  51.127  1.00 99.99     0.164 HD
ATOM     50  O   VAL     4      60.265  41.602  49.880  1.00  0.00    -0.271 OA
BRANCH  48  51
ATOM     51  CA  ILE     5      62.312  43.458  49.041  1.00  0.00     0.159 C 
BRANCH  51  52
ATOM     52  C   ILE     5      63.080  42.363  48.262  1.00  0.00     0.251 C 
ATOM     53  N   ARG     6      62.365  41.619  47.422  1.00  0.00    -0.338 N 
ATOM     54  H   ARG     6      61.395  41.798  47.275  1.00 99.99     0.164 HD
ATOM     55  O   ILE     5      64.281  42.188  48.455  1.00  0.00    -0.271 OA
BRANCH  53  56
ATOM     56  CA  ARG     6      62.932  40.655  46.461  1.00  0.00     0.159 C 
BRANCH  56  57
ATOM     57  C   ARG     6      62.877  41.355  45.095  1.00  0.00     0.251 C 
ATOM     58  N   TRP     7      63.856  40.981  44.282  1.00  0.00    -0.337 N 
ATOM     59  H   TRP     7      64.534  40.305  44.557  1.00 99.99     0.164 HD
ATOM     60  O   ARG     6      62.200  42.370  44.923  1.00  0.00    -0.271 OA
BRANCH  58  61
ATOM     61  CA  TRP     7      64.086  41.570  42.951  1.00  0.00     0.164 C 
BRANCH  61  62
ATOM     62  CB  TRP     7      65.522  42.103  42.867  1.00  0.00     0.059 C 
BRANCH  62  63
ATOM     63  CG  TRP     7      66.351  41.679  44.085  1.00  0.00    -0.016 A 
ATOM     64  CD2 TRP     7      66.560  42.418  45.238  1.00  0.00    -0.001 A 
ATOM     65  CE2 TRP     7      67.403  41.667  46.042  1.00  0.00     0.042 A 
ATOM     66  CE3 TRP     7      66.115  43.666  45.652  1.00  0.00     0.014 A 
ATOM     67  NE1 TRP     7      67.675  40.541  45.385  1.00  0.00    -0.365 N 
ATOM     68  CZ2 TRP     7      67.807  42.170  47.274  1.00  0.00     0.030 A 
ATOM     69  HE1 TRP     7      68.276  39.809  45.707  1.00 99.99     0.165 HD
ATOM     70  CD1 TRP     7      67.043  40.550  44.210  1.00  0.00     0.097 A 
ATOM     71  CH2 TRP     7      67.368  43.422  47.692  1.00  0.00     0.002 A 
ATOM     72  CZ3 TRP     7      66.525  44.172  46.879  1.00  0.00     0.001 A 
ENDBRANCH  62  63
ENDBRANCH  61  62
BRANCH  61  73
ATOM     73  C   TRP     7      63.783  40.613  41.788  1.00  0.00     0.251 C 
ATOM     74  O   TRP     7      64.575  39.739  41.439  1.00  0.00    -0.271 OA
ATOM     75  N   ARG     8      62.516  40.664  41.397  1.00  0.00    -0.336 N 
ATOM     76  H   ARG     8      61.870  41.270  41.859  1.00 99.99     0.164 HD
BRANCH  75  77
ATOM     77  CA  ARG     8      61.947  39.933  40.244  1.00  0.00     0.168 C 
BRANCH  77  78
ATOM     78  CB  ARG     8      60.960  38.862  40.719  1.00  0.00     0.035 C 
BRANCH  78  79
ATOM     79  CG  ARG     8      60.002  39.282  41.833  1.00  0.00     0.027 C 
BRANCH  79  80
ATOM     80  CD  ARG     8      58.584  39.118  41.294  1.00  0.00     0.116 C 
BRANCH  80  81
ATOM     81  NE  ARG     8      57.974  37.875  41.790  1.00  0.00    -0.212 N 
ATOM     82  HE  ARG     8      58.540  37.058  41.700  1.00 99.99     0.178 HD
ATOM     83  CZ  ARG     8      56.768  37.779  42.357  1.00  0.00     0.666 C 
ATOM     84  NH1 ARG     8      56.008  38.847  42.566  1.00  0.00    -0.235 N 
ATOM     85  NH2 ARG     8      56.272  36.594  42.677  1.00  0.00    -0.235 N 
ATOM     86 2HH1 ARG     8      56.357  39.743  42.296  1.00 99.99     0.174 HD
ATOM     87 1HH1 ARG     8      55.108  38.759  42.986  1.00 99.99     0.174 HD
ATOM     88 2HH2 ARG     8      56.794  35.763  42.495  1.00 99.99     0.174 HD
ATOM     89 1HH2 ARG     8      55.368  36.538  43.093  1.00 99.99     0.174 HD
ENDBRANCH  80  81
ENDBRANCH  79  80
ENDBRANCH  78  79
ENDBRANCH  77  78
BRANCH  77  90
ATOM     90  C   ARG     8      61.130  40.935  39.412  1.00  0.00     0.206 C 
ATOM     91  O   ARG     8      60.601  40.538  38.352  1.00 99.99    -0.646 OA
ATOM     92  OXT ARG     8      61.176  42.119  39.823  1.00 99.99    -0.646 OA
ENDBRANCH  77  90
ENDBRANCH  75  77
ENDBRANCH  61  73
ENDBRANCH  58  61
ENDBRANCH  56  57
BRANCH  56  93
ATOM     93  CB  ARG     6      62.097  39.371  46.404  1.00  0.00     0.034 C 
BRANCH  93  94
ATOM     94  CG  ARG     6      60.662  39.570  45.904  1.00  0.00     0.027 C 
BRANCH  94  95
ATOM     95  CD  ARG     6      59.654  38.895  46.840  1.00  0.00     0.116 C 
BRANCH  95  96
ATOM     96  NE  ARG     6      60.030  39.095  48.254  1.00  0.00    -0.212 N 
ATOM     97  HE  ARG     6      60.270  40.033  48.494  1.00 99.99     0.178 HD
ATOM     98  CZ  ARG     6      60.091  38.158  49.206  1.00  0.00     0.666 C 
ATOM     99  NH2 ARG     6      60.465  38.481  50.437  1.00  0.00    -0.235 N 
ATOM    100  NH1 ARG     6      59.805  36.887  48.953  1.00  0.00    -0.235 N 
ATOM    101 2HH2 ARG     6      60.698  39.425  50.664  1.00 99.99     0.174 HD
ATOM    102 1HH2 ARG     6      60.503  37.775  51.140  1.00 99.99     0.174 HD
ATOM    103 2HH1 ARG     6      59.533  36.636  48.025  1.00 99.99     0.174 HD
ATOM    104 1HH1 ARG     6      59.851  36.200  49.673  1.00 99.99     0.174 HD
ENDBRANCH  95  96
ENDBRANCH  94  95
ENDBRANCH  93  94
ENDBRANCH  56  93
ENDBRANCH  53  56
ENDBRANCH  51  52
BRANCH  51 105
ATOM    105  CB  ILE     5      63.105  44.780  49.033  1.00  0.00     0.029 C 
ATOM    106  CG2 ILE     5      62.164  45.948  49.369  1.00  0.00     0.002 C 
BRANCH 105 107
ATOM    107  CG1 ILE     5      64.346  44.716  49.942  1.00  0.00     0.002 C 
ATOM    108  CD  ILE     5      65.096  46.047  50.080  1.00  0.00     0.000 C 
ENDBRANCH 105 107
ENDBRANCH  51 105
ENDBRANCH  48  51
ENDBRANCH  43  47
ENDBRANCH  41  43
ENDBRANCH  27  39
ENDBRANCH  25  27
ENDBRANCH  22  23
BRANCH  22 109
ATOM    109  CB  ILE     2      54.578  41.158  49.438  1.00  0.00     0.029 C 
ATOM    110  CG2 ILE     2      53.072  41.235  49.753  1.00  0.00     0.002 C 
BRANCH 109 111
ATOM    111  CG1 ILE     2      54.796  40.565  48.033  1.00  0.00     0.002 C 
ATOM    112  CD  ILE     2      55.654  39.291  47.995  1.00  0.00     0.000 C 
ENDBRANCH 109 111
ENDBRANCH  22 109
ENDBRANCH  20  22
ENDBRANCH   5  18
ENDBRANCH   1   5
TORSDOF 37
ENDMDL
MODEL 8
REMARK VINA RESULT:      -4.4      2.481      7.498
REMARK WARNING: 32 MAX_TORS EXCEEDED!!!
REMARK  37 active torsions:
REMARK  status: ('A' for Active; 'I' for Inactive)
REMARK    1  A    between atoms: N_1  and  CA_2 
REMARK    2  A    between atoms: CA_2  and  CB_5 
REMARK    3  A    between atoms: CA_2  and  C_3 
REMARK       I    between atoms: C_3  and  N_20 
REMARK    4  A    between atoms: CB_5  and  CG_6 
REMARK    5  A    between atoms: CG_6  and  CD_7 
REMARK    6  A    between atoms: CD_7  and  NE_8 
REMARK       I    between atoms: NE_8  and  CZ_9 
REMARK       I    between atoms: CZ_9  and  NH1_10 
REMARK       I    between atoms: CZ_9  and  NH2_11 
REMARK    7  A    between atoms: N_20  and  CA_21 
REMARK    8  A    between atoms: CA_21  and  C_22 
REMARK    9  A    between atoms: CA_21  and  CB_24 
REMARK       I    between atoms: C_22  and  N_29 
REMARK   10  A    between atoms: CB_24  and  CG1_25 
REMARK   11  A    between atoms: N_29  and  CA_30 
REMARK   12  A    between atoms: CA_30  and  CB_33 
REMARK   13  A    between atoms: CA_30  and  C_31 
REMARK       I    between atoms: C_31  and  N_45 
REMARK   14  A    between atoms: CB_33  and  CG_34 
REMARK   15  A    between atoms: N_45  and  CA_46 
REMARK   16  A    between atoms: CA_46  and  CB_49 
REMARK   17  A    between atoms: CA_46  and  C_47 
REMARK       I    between atoms: C_47  and  N_53 
REMARK   18  A    between atoms: N_53  and  CA_54 
REMARK   19  A    between atoms: CA_54  and  C_55 
REMARK   20  A    between atoms: CA_54  and  CB_57 
REMARK       I    between atoms: C_55  and  N_62 
REMARK   21  A    between atoms: CB_57  and  CG1_58 
REMARK   22  A    between atoms: N_62  and  CA_63 
REMARK   23  A    between atoms: CA_63  and  C_64 
REMARK   24  A    between atoms: CA_63  and  CB_66 
REMARK       I    between atoms: C_64  and  N_79 
REMARK   25  A    between atoms: CB_66  and  CG_67 
REMARK   26  A    between atoms: CG_67  and  CD_68 
REMARK   27  A    between atoms: CD_68  and  NE_69 
REMARK       I    between atoms: NE_69  and  CZ_70 
REMARK       I    between atoms: CZ_70  and  NH2_72 
REMARK       I    between atoms: CZ_70  and  NH1_71 
REMARK   28  A    between atoms: N_79  and  CA_80 
REMARK   29  A    between atoms: CA_80  and  CB_83 
REMARK   30  A    between atoms: CA_80  and  C_81 
REMARK       I    between atoms: C_81  and  N_95 
REMARK   31  A    between atoms: CB_83  and  CG_84 
REMARK   32  A    between atoms: N_95  and  CA_96 
REMARK   33  A    between atoms: CA_96  and  CB_99 
REMARK   34  A    between atoms: CA_96  and  C_97 
REMARK   35  A    between atoms: CB_99  and  CG_100 
REMARK   36  A    between atoms: CG_100  and  CD_101 
REMARK   37  A    between atoms: CD_101  and  NE_102 
REMARK       I    between atoms: NE_102  and  CZ_103 
REMARK       I    between atoms: CZ_103  and  NH1_104 
ROOT
ATOM      1  N   ARG     1      56.721  43.280  48.949  1.00  0.00    -0.058 N 
ATOM      2  H1  ARG     1      56.529  44.259  48.870  1.00 99.99     0.276 HD
ATOM      3  H2  ARG     1      57.602  43.176  49.379  1.00 99.99     0.276 HD
ATOM      4  H3  ARG     1      56.826  42.894  48.045  1.00 99.99     0.276 HD
ENDROOT
BRANCH   1   5
ATOM      5  CA  ARG     1      55.622  42.669  49.737  1.00  0.00     0.255 C 
BRANCH   5   6
ATOM      6  CB  ARG     1      55.372  41.214  49.288  1.00  0.00     0.042 C 
BRANCH   6   7
ATOM      7  CG  ARG     1      54.128  40.566  49.924  1.00  0.00     0.027 C 
BRANCH   7   8
ATOM      8  CD  ARG     1      52.973  40.341  48.937  1.00  0.00     0.116 C 
BRANCH   8   9
ATOM      9  NE  ARG     1      52.835  38.925  48.537  1.00  0.00    -0.212 N 
ATOM     10  CZ  ARG     1      53.388  38.345  47.464  1.00  0.00     0.666 C 
ATOM     11  NH1 ARG     1      54.152  39.014  46.610  1.00  0.00    -0.235 N 
ATOM     12  NH2 ARG     1      53.195  37.053  47.226  1.00  0.00    -0.235 N 
ATOM     13 2HH1 ARG     1      54.322  39.985  46.768  1.00 99.99     0.174 HD
ATOM     14 1HH1 ARG     1      54.559  38.553  45.824  1.00 99.99     0.174 HD
ATOM     15 1HH2 ARG     1      53.620  36.631  46.427  1.00 99.99     0.174 HD
ATOM     16 2HH2 ARG     1      52.630  36.501  47.836  1.00 99.99     0.174 HD
ATOM     17  HE  ARG     1      52.245  38.371  49.120  1.00 99.99     0.178 HD
ENDBRANCH   8   9
ENDBRANCH   7   8
ENDBRANCH   6   7
ENDBRANCH   5   6
BRANCH   5  18
ATOM     18  C   ARG     1      56.026  42.684  51.228  1.00  0.00     0.259 C 
ATOM     19  O   ARG     1      55.442  43.430  52.012  1.00  0.00    -0.271 OA
ATOM     20  N   ILE     2      56.906  41.766  51.622  1.00  0.00    -0.338 N 
ATOM     21  H   ILE     2      57.318  41.102  50.999  1.00 99.99     0.164 HD
BRANCH  20  22
ATOM     22  CA  ILE     2      57.416  41.688  53.009  1.00  0.00     0.159 C 
BRANCH  22  23
ATOM     23  C   ILE     2      58.805  42.358  53.032  1.00  0.00     0.251 C 
ATOM     24  O   ILE     2      58.931  43.518  53.420  1.00  0.00    -0.271 OA
ATOM     25  N   TRP     3      59.824  41.578  52.685  1.00  0.00    -0.337 N 
ATOM     26  H   TRP     3      59.714  40.599  52.522  1.00 99.99     0.164 HD
BRANCH  25  27
ATOM     27  CA  TRP     3      61.208  42.064  52.529  1.00  0.00     0.164 C 
BRANCH  27  28
ATOM     28  CB  TRP     3      62.198  40.912  52.721  1.00  0.00     0.059 C 
BRANCH  28  29
ATOM     29  CG  TRP     3      62.077  40.151  54.047  1.00  0.00    -0.016 A 
ATOM     30  CD2 TRP     3      62.590  40.621  55.244  1.00  0.00    -0.001 A 
ATOM     31  CE3 TRP     3      63.408  41.699  55.544  1.00  0.00     0.014 A 
ATOM     32  CE2 TRP     3      62.070  39.824  56.250  1.00  0.00     0.042 A 
ATOM     33  CZ3 TRP     3      63.699  41.997  56.867  1.00  0.00     0.001 A 
ATOM     34  CH2 TRP     3      63.189  41.195  57.884  1.00  0.00     0.002 A 
ATOM     35  CZ2 TRP     3      62.382  40.104  57.576  1.00  0.00     0.030 A 
ATOM     36  NE1 TRP     3      61.280  38.924  55.669  1.00  0.00    -0.365 N 
ATOM     37  CD1 TRP     3      61.294  39.113  54.348  1.00  0.00     0.097 A 
ATOM     38  HE1 TRP     3      60.711  38.253  56.147  1.00 99.99     0.165 HD
ENDBRANCH  28  29
ENDBRANCH  27  28
BRANCH  27  39
ATOM     39  C   TRP     3      61.394  42.684  51.139  1.00  0.00     0.251 C 
ATOM     40  O   TRP     3      60.762  42.272  50.167  1.00  0.00    -0.271 OA
ATOM     41  N   VAL     4      62.120  43.795  51.122  1.00  0.00    -0.338 N 
ATOM     42  H   VAL     4      62.555  44.158  51.946  1.00 99.99     0.164 HD
BRANCH  41  43
ATOM     43  CA  VAL     4      62.387  44.563  49.888  1.00  0.00     0.159 C 
BRANCH  43  44
ATOM     44  CB  VAL     4      62.458  46.076  50.190  1.00  0.00     0.029 C 
ATOM     45  CG1 VAL     4      62.920  46.353  51.627  1.00  0.00     0.002 C 
ATOM     46  CG2 VAL     4      63.398  46.809  49.225  1.00  0.00     0.002 C 
ENDBRANCH  43  44
BRANCH  43  47
ATOM     47  C   VAL     4      63.692  44.042  49.263  1.00  0.00     0.251 C 
ATOM     48  N   ILE     5      63.534  43.228  48.220  1.00  0.00    -0.338 N 
ATOM     49  H   ILE     5      62.626  42.904  47.958  1.00 99.99     0.164 HD
ATOM     50  O   VAL     4      64.780  44.433  49.678  1.00  0.00    -0.271 OA
BRANCH  48  51
ATOM     51  CA  ILE     5      64.640  42.597  47.454  1.00  0.00     0.159 C 
BRANCH  51  52
ATOM     52  C   ILE     5      64.734  42.922  45.944  1.00  0.00     0.251 C 
ATOM     53  N   ARG     6      64.086  42.103  45.119  1.00  0.00    -0.338 N 
ATOM     54  H   ARG     6      63.534  41.350  45.470  1.00 99.99     0.164 HD
ATOM     55  O   ILE     5      65.408  43.872  45.552  1.00  0.00    -0.271 OA
BRANCH  53  56
ATOM     56  CA  ARG     6      63.901  42.338  43.675  1.00  0.00     0.159 C 
BRANCH  56  57
ATOM     57  C   ARG     6      62.406  42.103  43.409  1.00  0.00     0.251 C 
ATOM     58  N   TRP     7      61.797  43.167  42.902  1.00  0.00    -0.337 N 
ATOM     59  H   TRP     7      62.292  44.012  42.714  1.00 99.99     0.164 HD
ATOM     60  O   ARG     6      61.806  41.156  43.918  1.00  0.00    -0.271 OA
BRANCH  58  61
ATOM     61  CA  TRP     7      60.349  43.238  42.644  1.00  0.00     0.164 C 
BRANCH  61  62
ATOM     62  CB  TRP     7      59.885  41.946  41.961  1.00  0.00     0.059 C 
BRANCH  62  63
ATOM     63  CG  TRP     7      59.870  42.091  40.435  1.00  0.00    -0.016 A 
ATOM     64  CD2 TRP     7      60.931  41.861  39.575  1.00  0.00    -0.001 A 
ATOM     65  CE2 TRP     7      60.478  42.159  38.299  1.00  0.00     0.042 A 
ATOM     66  CE3 TRP     7      62.239  41.442  39.780  1.00  0.00     0.014 A 
ATOM     67  NE1 TRP     7      59.209  42.548  38.412  1.00  0.00    -0.365 N 
ATOM     68  CZ2 TRP     7      61.342  42.038  37.216  1.00  0.00     0.030 A 
ATOM     69  HE1 TRP     7      58.622  42.846  37.658  1.00 99.99     0.165 HD
ATOM     70  CD1 TRP     7      58.846  42.505  39.695  1.00  0.00     0.097 A 
ATOM     71  CH2 TRP     7      62.655  41.623  37.417  1.00  0.00     0.002 A 
ATOM     72  CZ3 TRP     7      63.104  41.329  38.700  1.00  0.00     0.001 A 
ENDBRANCH  62  63
ENDBRANCH  61  62
BRANCH  61  73
ATOM     73  C   TRP     7      59.509  43.533  43.897  1.00  0.00     0.251 C 
ATOM     74  O   TRP     7      58.924  44.603  44.054  1.00  0.00    -0.271 OA
ATOM     75  N   ARG     8      59.283  42.451  44.631  1.00  0.00    -0.336 N 
ATOM     76  H   ARG     8      59.635  41.562  44.340  1.00 99.99     0.164 HD
BRANCH  75  77
ATOM     77  CA  ARG     8      58.590  42.434  45.938  1.00  0.00     0.168 C 
BRANCH  77  78
ATOM     78  CB  ARG     8      58.132  41.013  46.285  1.00  0.00     0.035 C 
BRANCH  78  79
ATOM     79  CG  ARG     8      58.706  39.894  45.418  1.00  0.00     0.027 C 
BRANCH  79  80
ATOM     80  CD  ARG     8      59.479  38.959  46.344  1.00  0.00     0.116 C 
BRANCH  80  81
ATOM     81  NE  ARG     8      58.795  38.818  47.639  1.00  0.00    -0.212 N 
ATOM     82  HE  ARG     8      57.893  38.393  47.599  1.00 99.99     0.178 HD
ATOM     83  CZ  ARG     8      59.296  39.184  48.821  1.00  0.00     0.666 C 
ATOM     84  NH1 ARG     8      60.520  39.686  48.936  1.00  0.00    -0.235 N 
ATOM     85  NH2 ARG     8      58.555  39.105  49.916  1.00  0.00    -0.235 N 
ATOM     86 2HH1 ARG     8      61.076  39.782  48.112  1.00 99.99     0.174 HD
ATOM     87 1HH1 ARG     8      60.879  39.958  49.825  1.00 99.99     0.174 HD
ATOM     88 2HH2 ARG     8      57.614  38.775  49.865  1.00 99.99     0.174 HD
ATOM     89 1HH2 ARG     8      58.941  39.389  50.790  1.00 99.99     0.174 HD
ENDBRANCH  80  81
ENDBRANCH  79  80
ENDBRANCH  78  79
ENDBRANCH  77  78
BRANCH  77  90
ATOM     90  C   ARG     8      59.612  42.833  47.014  1.00  0.00     0.206 C 
ATOM     91  O   ARG     8      59.360  43.819  47.738  1.00 99.99    -0.646 OA
ATOM     92  OXT ARG     8      60.688  42.189  46.981  1.00 99.99    -0.646 OA
ENDBRANCH  77  90
ENDBRANCH  75  77
ENDBRANCH  61  73
ENDBRANCH  58  61
ENDBRANCH  56  57
BRANCH  56  93
ATOM     93  CB  ARG     6      64.722  41.349  42.841  1.00  0.00     0.034 C 
BRANCH  93  94
ATOM     94  CG  ARG     6      65.573  40.377  43.666  1.00  0.00     0.027 C 
BRANCH  94  95
ATOM     95  CD  ARG     6      67.069  40.642  43.460  1.00  0.00     0.116 C 
BRANCH  95  96
ATOM     96  NE  ARG     6      67.435  41.996  43.924  1.00  0.00    -0.212 N 
ATOM     97  HE  ARG     6      66.960  42.739  43.458  1.00 99.99     0.178 HD
ATOM     98  CZ  ARG     6      68.328  42.303  44.870  1.00  0.00     0.666 C 
ATOM     99  NH2 ARG     6      68.570  43.571  45.172  1.00  0.00    -0.235 N 
ATOM    100  NH1 ARG     6      69.010  41.366  45.515  1.00  0.00    -0.235 N 
ATOM    101 2HH2 ARG     6      68.084  44.305  44.701  1.00 99.99     0.174 HD
ATOM    102 1HH2 ARG     6      69.235  43.789  45.882  1.00 99.99     0.174 HD
ATOM    103 2HH1 ARG     6      68.840  40.408  45.284  1.00 99.99     0.174 HD
ATOM    104 1HH1 ARG     6      69.670  41.609  46.221  1.00 99.99     0.174 HD
ENDBRANCH  95  96
ENDBRANCH  94  95
ENDBRANCH  93  94
ENDBRANCH  56  93
ENDBRANCH  53  56
ENDBRANCH  51  52
BRANCH  51 105
ATOM    105  CB  ILE     5      64.662  41.072  47.678  1.00  0.00     0.029 C 
ATOM    106  CG2 ILE     5      66.109  40.559  47.589  1.00  0.00     0.002 C 
BRANCH 105 107
ATOM    107  CG1 ILE     5      63.951  40.668  48.983  1.00  0.00     0.002 C 
ATOM    108  CD  ILE     5      64.438  39.342  49.581  1.00  0.00     0.000 C 
ENDBRANCH 105 107
ENDBRANCH  51 105
ENDBRANCH  48  51
ENDBRANCH  43  47
ENDBRANCH  41  43
ENDBRANCH  27  39
ENDBRANCH  25  27
ENDBRANCH  22  23
BRANCH  22 109
ATOM    109  CB  ILE     2      57.460  40.212  53.474  1.00  0.00     0.029 C 
ATOM    110  CG2 ILE     2      57.747  40.101  54.983  1.00  0.00     0.002 C 
BRANCH 109 111
ATOM    111  CG1 ILE     2      56.144  39.488  53.130  1.00  0.00     0.002 C 
ATOM    112  CD  ILE     2      54.913  39.984  53.903  1.00  0.00     0.000 C 
ENDBRANCH 109 111
ENDBRANCH  22 109
ENDBRANCH  20  22
ENDBRANCH   5  18
ENDBRANCH   1   5
TORSDOF 37
ENDMDL
MODEL 9
REMARK VINA RESULT:      -4.3      2.800      6.268
REMARK WARNING: 32 MAX_TORS EXCEEDED!!!
REMARK  37 active torsions:
REMARK  status: ('A' for Active; 'I' for Inactive)
REMARK    1  A    between atoms: N_1  and  CA_2 
REMARK    2  A    between atoms: CA_2  and  CB_5 
REMARK    3  A    between atoms: CA_2  and  C_3 
REMARK       I    between atoms: C_3  and  N_20 
REMARK    4  A    between atoms: CB_5  and  CG_6 
REMARK    5  A    between atoms: CG_6  and  CD_7 
REMARK    6  A    between atoms: CD_7  and  NE_8 
REMARK       I    between atoms: NE_8  and  CZ_9 
REMARK       I    between atoms: CZ_9  and  NH1_10 
REMARK       I    between atoms: CZ_9  and  NH2_11 
REMARK    7  A    between atoms: N_20  and  CA_21 
REMARK    8  A    between atoms: CA_21  and  C_22 
REMARK    9  A    between atoms: CA_21  and  CB_24 
REMARK       I    between atoms: C_22  and  N_29 
REMARK   10  A    between atoms: CB_24  and  CG1_25 
REMARK   11  A    between atoms: N_29  and  CA_30 
REMARK   12  A    between atoms: CA_30  and  CB_33 
REMARK   13  A    between atoms: CA_30  and  C_31 
REMARK       I    between atoms: C_31  and  N_45 
REMARK   14  A    between atoms: CB_33  and  CG_34 
REMARK   15  A    between atoms: N_45  and  CA_46 
REMARK   16  A    between atoms: CA_46  and  CB_49 
REMARK   17  A    between atoms: CA_46  and  C_47 
REMARK       I    between atoms: C_47  and  N_53 
REMARK   18  A    between atoms: N_53  and  CA_54 
REMARK   19  A    between atoms: CA_54  and  C_55 
REMARK   20  A    between atoms: CA_54  and  CB_57 
REMARK       I    between atoms: C_55  and  N_62 
REMARK   21  A    between atoms: CB_57  and  CG1_58 
REMARK   22  A    between atoms: N_62  and  CA_63 
REMARK   23  A    between atoms: CA_63  and  C_64 
REMARK   24  A    between atoms: CA_63  and  CB_66 
REMARK       I    between atoms: C_64  and  N_79 
REMARK   25  A    between atoms: CB_66  and  CG_67 
REMARK   26  A    between atoms: CG_67  and  CD_68 
REMARK   27  A    between atoms: CD_68  and  NE_69 
REMARK       I    between atoms: NE_69  and  CZ_70 
REMARK       I    between atoms: CZ_70  and  NH2_72 
REMARK       I    between atoms: CZ_70  and  NH1_71 
REMARK   28  A    between atoms: N_79  and  CA_80 
REMARK   29  A    between atoms: CA_80  and  CB_83 
REMARK   30  A    between atoms: CA_80  and  C_81 
REMARK       I    between atoms: C_81  and  N_95 
REMARK   31  A    between atoms: CB_83  and  CG_84 
REMARK   32  A    between atoms: N_95  and  CA_96 
REMARK   33  A    between atoms: CA_96  and  CB_99 
REMARK   34  A    between atoms: CA_96  and  C_97 
REMARK   35  A    between atoms: CB_99  and  CG_100 
REMARK   36  A    between atoms: CG_100  and  CD_101 
REMARK   37  A    between atoms: CD_101  and  NE_102 
REMARK       I    between atoms: NE_102  and  CZ_103 
REMARK       I    between atoms: CZ_103  and  NH1_104 
ROOT
ATOM      1  N   ARG     1      59.284  43.231  47.983  1.00  0.00    -0.058 N 
ATOM      2  H1  ARG     1      60.171  43.600  47.700  1.00 99.99     0.276 HD
ATOM      3  H2  ARG     1      59.207  43.337  48.959  1.00 99.99     0.276 HD
ATOM      4  H3  ARG     1      59.271  42.255  47.825  1.00 99.99     0.276 HD
ENDROOT
BRANCH   1   5
ATOM      5  CA  ARG     1      58.234  43.971  47.240  1.00  0.00     0.255 C 
BRANCH   5   6
ATOM      6  CB  ARG     1      58.007  43.346  45.848  1.00  0.00     0.042 C 
BRANCH   6   7
ATOM      7  CG  ARG     1      58.398  41.860  45.756  1.00  0.00     0.027 C 
BRANCH   7   8
ATOM      8  CD  ARG     1      58.125  41.230  44.382  1.00  0.00     0.116 C 
BRANCH   8   9
ATOM      9  NE  ARG     1      56.720  40.803  44.222  1.00  0.00    -0.212 N 
ATOM     10  CZ  ARG     1      56.254  39.550  44.313  1.00  0.00     0.666 C 
ATOM     11  NH1 ARG     1      57.046  38.516  44.569  1.00  0.00    -0.235 N 
ATOM     12  NH2 ARG     1      54.959  39.303  44.160  1.00  0.00    -0.235 N 
ATOM     13 2HH1 ARG     1      58.024  38.673  44.697  1.00 99.99     0.174 HD
ATOM     14 1HH1 ARG     1      56.669  37.594  44.642  1.00 99.99     0.174 HD
ATOM     15 1HH2 ARG     1      54.624  38.365  44.239  1.00 99.99     0.174 HD
ATOM     16 2HH2 ARG     1      54.318  40.043  43.967  1.00 99.99     0.174 HD
ATOM     17  HE  ARG     1      56.075  41.529  43.994  1.00 99.99     0.178 HD
ENDBRANCH   8   9
ENDBRANCH   7   8
ENDBRANCH   6   7
ENDBRANCH   5   6
BRANCH   5  18
ATOM     18  C   ARG     1      56.922  43.902  48.054  1.00  0.00     0.259 C 
ATOM     19  O   ARG     1      56.081  44.791  47.933  1.00  0.00    -0.271 OA
ATOM     20  N   ILE     2      56.704  42.789  48.750  1.00  0.00    -0.338 N 
ATOM     21  H   ILE     2      57.352  42.028  48.780  1.00 99.99     0.164 HD
BRANCH  20  22
ATOM     22  CA  ILE     2      55.513  42.601  49.608  1.00  0.00     0.159 C 
BRANCH  22  23
ATOM     23  C   ILE     2      55.954  42.815  51.070  1.00  0.00     0.251 C 
ATOM     24  O   ILE     2      55.684  43.863  51.655  1.00  0.00    -0.271 OA
ATOM     25  N   TRP     3      56.557  41.780  51.645  1.00  0.00    -0.337 N 
ATOM     26  H   TRP     3      56.626  40.889  51.200  1.00 99.99     0.164 HD
BRANCH  25  27
ATOM     27  CA  TRP     3      57.156  41.829  52.992  1.00  0.00     0.164 C 
BRANCH  27  28
ATOM     28  CB  TRP     3      57.190  40.427  53.608  1.00  0.00     0.059 C 
BRANCH  28  29
ATOM     29  CG  TRP     3      56.748  39.288  52.681  1.00  0.00    -0.016 A 
ATOM     30  CD2 TRP     3      55.422  38.948  52.472  1.00  0.00    -0.001 A 
ATOM     31  CE3 TRP     3      54.249  39.366  53.082  1.00  0.00     0.014 A 
ATOM     32  CE2 TRP     3      55.391  38.077  51.396  1.00  0.00     0.042 A 
ATOM     33  CZ3 TRP     3      53.027  38.920  52.602  1.00  0.00     0.001 A 
ATOM     34  CH2 TRP     3      52.987  38.036  51.528  1.00  0.00     0.002 A 
ATOM     35  CZ2 TRP     3      54.167  37.607  50.930  1.00  0.00     0.030 A 
ATOM     36  NE1 TRP     3      56.648  37.914  50.987  1.00  0.00    -0.365 N 
ATOM     37  CD1 TRP     3      57.460  38.631  51.765  1.00  0.00     0.097 A 
ATOM     38  HE1 TRP     3      56.934  37.391  50.183  1.00 99.99     0.165 HD
ENDBRANCH  28  29
ENDBRANCH  27  28
BRANCH  27  39
ATOM     39  C   TRP     3      58.578  42.398  52.914  1.00  0.00     0.251 C 
ATOM     40  O   TRP     3      58.859  43.485  53.418  1.00  0.00    -0.271 OA
ATOM     41  N   VAL     4      59.488  41.550  52.448  1.00  0.00    -0.338 N 
ATOM     42  H   VAL     4      59.245  40.638  52.122  1.00 99.99     0.164 HD
BRANCH  41  43
ATOM     43  CA  VAL     4      60.920  41.894  52.327  1.00  0.00     0.159 C 
BRANCH  43  44
ATOM     44  CB  VAL     4      61.802  40.777  52.927  1.00  0.00     0.029 C 
ATOM     45  CG1 VAL     4      62.581  41.260  54.158  1.00  0.00     0.002 C 
ATOM     46  CG2 VAL     4      60.978  39.546  53.322  1.00  0.00     0.002 C 
ENDBRANCH  43  44
BRANCH  43  47
ATOM     47  C   VAL     4      61.238  42.140  50.843  1.00  0.00     0.251 C 
ATOM     48  N   ILE     5      62.363  42.813  50.609  1.00  0.00    -0.338 N 
ATOM     49  H   ILE     5      62.883  43.217  51.362  1.00 99.99     0.164 HD
ATOM     50  O   VAL     4      60.518  41.668  49.966  1.00  0.00    -0.271 OA
BRANCH  48  51
ATOM     51  CA  ILE     5      62.879  43.174  49.264  1.00  0.00     0.159 C 
BRANCH  51  52
ATOM     52  C   ILE     5      63.230  42.014  48.301  1.00  0.00     0.251 C 
ATOM     53  N   ARG     6      62.334  41.731  47.359  1.00  0.00    -0.338 N 
ATOM     54  H   ARG     6      61.504  42.276  47.259  1.00 99.99     0.164 HD
ATOM     55  O   ILE     5      64.272  41.379  48.445  1.00  0.00    -0.271 OA
BRANCH  53  56
ATOM     56  CA  ARG     6      62.554  40.794  46.243  1.00  0.00     0.159 C 
BRANCH  56  57
ATOM     57  C   ARG     6      62.401  41.632  44.965  1.00  0.00     0.251 C 
ATOM     58  N   TRP     7      62.968  41.070  43.906  1.00  0.00    -0.337 N 
ATOM     59  H   TRP     7      63.428  40.188  43.966  1.00 99.99     0.164 HD
ATOM     60  O   ARG     6      62.081  42.821  45.014  1.00  0.00    -0.271 OA
BRANCH  58  61
ATOM     61  CA  TRP     7      63.047  41.710  42.582  1.00  0.00     0.164 C 
BRANCH  61  62
ATOM     62  CB  TRP     7      64.406  42.406  42.427  1.00  0.00     0.059 C 
BRANCH  62  63
ATOM     63  CG  TRP     7      65.543  41.550  42.996  1.00  0.00    -0.016 A 
ATOM     64  CD2 TRP     7      66.188  41.734  44.208  1.00  0.00    -0.001 A 
ATOM     65  CE2 TRP     7      67.172  40.761  44.285  1.00  0.00     0.042 A 
ATOM     66  CE3 TRP     7      66.025  42.658  45.232  1.00  0.00     0.014 A 
ATOM     67  NE1 TRP     7      67.104  40.041  43.166  1.00  0.00    -0.365 N 
ATOM     68  CZ2 TRP     7      68.003  40.710  45.398  1.00  0.00     0.030 A 
ATOM     69  HE1 TRP     7      67.704  39.278  42.927  1.00 99.99     0.165 HD
ATOM     70  CD1 TRP     7      66.125  40.517  42.393  1.00  0.00     0.097 A 
ATOM     71  CH2 TRP     7      67.848  41.636  46.426  1.00  0.00     0.002 A 
ATOM     72  CZ3 TRP     7      66.861  42.612  46.340  1.00  0.00     0.001 A 
ENDBRANCH  62  63
ENDBRANCH  61  62
BRANCH  61  73
ATOM     73  C   TRP     7      62.782  40.751  41.412  1.00  0.00     0.251 C 
ATOM     74  O   TRP     7      62.060  39.762  41.529  1.00  0.00    -0.271 OA
ATOM     75  N   ARG     8      63.188  41.237  40.246  1.00  0.00    -0.336 N 
ATOM     76  H   ARG     8      63.602  42.144  40.195  1.00 99.99     0.164 HD
BRANCH  75  77
ATOM     77  CA  ARG     8      63.155  40.509  38.958  1.00  0.00     0.168 C 
BRANCH  77  78
ATOM     78  CB  ARG     8      62.046  41.062  38.056  1.00  0.00     0.035 C 
BRANCH  78  79
ATOM     79  CG  ARG     8      61.984  42.583  37.928  1.00  0.00     0.027 C 
BRANCH  79  80
ATOM     80  CD  ARG     8      60.515  42.984  38.032  1.00  0.00     0.116 C 
BRANCH  80  81
ATOM     81  NE  ARG     8      59.947  42.571  39.324  1.00  0.00    -0.212 N 
ATOM     82  HE  ARG     8      60.126  41.623  39.583  1.00 99.99     0.178 HD
ATOM     83  CZ  ARG     8      59.260  43.360  40.153  1.00  0.00     0.666 C 
ATOM     84  NH1 ARG     8      59.059  44.645  39.888  1.00  0.00    -0.235 N 
ATOM     85  NH2 ARG     8      58.706  42.860  41.248  1.00  0.00    -0.235 N 
ATOM     86 2HH1 ARG     8      59.443  45.026  39.049  1.00 99.99     0.174 HD
ATOM     87 1HH1 ARG     8      58.540  45.221  40.515  1.00 99.99     0.174 HD
ATOM     88 2HH2 ARG     8      58.796  41.889  41.460  1.00 99.99     0.174 HD
ATOM     89 1HH2 ARG     8      58.189  43.460  41.853  1.00 99.99     0.174 HD
ENDBRANCH  80  81
ENDBRANCH  79  80
ENDBRANCH  78  79
ENDBRANCH  77  78
BRANCH  77  90
ATOM     90  C   ARG     8      64.481  40.784  38.231  1.00  0.00     0.206 C 
ATOM     91  O   ARG     8      64.609  40.387  37.053  1.00 99.99    -0.646 OA
ATOM     92  OXT ARG     8      65.378  41.287  38.948  1.00 99.99    -0.646 OA
ENDBRANCH  77  90
ENDBRANCH  75  77
ENDBRANCH  61  73
ENDBRANCH  58  61
ENDBRANCH  56  57
BRANCH  56  93
ATOM     93  CB  ARG     6      61.506  39.676  46.241  1.00  0.00     0.034 C 
BRANCH  93  94
ATOM     94  CG  ARG     6      62.087  38.261  46.333  1.00  0.00     0.027 C 
BRANCH  94  95
ATOM     95  CD  ARG     6      61.612  37.392  45.163  1.00  0.00     0.116 C 
BRANCH  95  96
ATOM     96  NE  ARG     6      62.345  37.727  43.925  1.00  0.00    -0.212 N 
ATOM     97  HE  ARG     6      61.953  38.478  43.397  1.00 99.99     0.178 HD
ATOM     98  CZ  ARG     6      63.442  37.123  43.456  1.00  0.00     0.666 C 
ATOM     99  NH2 ARG     6      63.986  37.520  42.314  1.00  0.00    -0.235 N 
ATOM    100  NH1 ARG     6      64.004  36.105  44.095  1.00  0.00    -0.235 N 
ATOM    101 2HH2 ARG     6      63.585  38.275  41.798  1.00 99.99     0.174 HD
ATOM    102 1HH2 ARG     6      64.806  37.065  41.975  1.00 99.99     0.174 HD
ATOM    103 2HH1 ARG     6      63.593  35.794  44.952  1.00 99.99     0.174 HD
ATOM    104 1HH1 ARG     6      64.823  35.667  43.736  1.00 99.99     0.174 HD
ENDBRANCH  95  96
ENDBRANCH  94  95
ENDBRANCH  93  94
ENDBRANCH  56  93
ENDBRANCH  53  56
ENDBRANCH  51  52
BRANCH  51 105
ATOM    105  CB  ILE     5      64.063  44.156  49.375  1.00  0.00     0.029 C 
ATOM    106  CG2 ILE     5      64.421  44.692  47.979  1.00  0.00     0.002 C 
BRANCH 105 107
ATOM    107  CG1 ILE     5      63.797  45.269  50.406  1.00  0.00     0.002 C 
ATOM    108  CD  ILE     5      62.775  46.318  49.949  1.00  0.00     0.000 C 
ENDBRANCH 105 107
ENDBRANCH  51 105
ENDBRANCH  48  51
ENDBRANCH  43  47
ENDBRANCH  41  43
ENDBRANCH  27  39
ENDBRANCH  25  27
ENDBRANCH  22  23
BRANCH  22 109
ATOM    109  CB  ILE     2      54.907  41.196  49.370  1.00  0.00     0.029 C 
ATOM    110  CG2 ILE     2      53.383  41.191  49.594  1.00  0.00     0.002 C 
BRANCH 109 111
ATOM    111  CG1 ILE     2      55.236  40.689  47.952  1.00  0.00     0.002 C 
ATOM    112  CD  ILE     2      55.615  39.203  47.869  1.00  0.00     0.000 C 
ENDBRANCH 109 111
ENDBRANCH  22 109
ENDBRANCH  20  22
ENDBRANCH   5  18
ENDBRANCH   1   5
TORSDOF 37
ENDMDL
